30544573
  CDK     1229141458

 52 54  0  0  0  0  0  0  0  0999 V2000
    2.8660    5.0000    0.0000 F   0  0  0  0  0  0  0  0  0  0  0  0
    8.9282   -3.5000    0.0000 O   0  0  0  0  0  0  0  0  0  0  0  0
    2.8660   -4.0000    0.0000 O   0  0  0  0  0  0  0  0  0  0  0  0
    4.5981   -5.0000    0.0000 O   0  0  0  0  0  0  0  0  0  0  0  0
    2.8660   -1.0000    0.0000 O   0  0  0  0  0  0  0  0  0  0  0  0
    7.1962   -2.5000    0.0000 N   0  0  0  0  0  0  0  0  0  0  0  0
    4.5981   -2.0000    0.0000 N   0  0  0  0  0  0  0  0  0  0  0  0
    3.7320    0.5000    0.0000 N   0  0  0  0  0  0  0  0  0  0  0  0
    6.3301   -2.0000    0.0000 C   0  0  0  0  0  0  0  0  0  0  0  0
    7.1962   -3.5000    0.0000 C   0  0  0  0  0  0  0  0  0  0  0  0
    8.0622   -2.0000    0.0000 C   0  0  0  0  0  0  0  0  0  0  0  0
    5.4641   -2.5000    0.0000 C   0  0  0  0  0  0  0  0  0  0  0  0
    8.9282   -2.5000    0.0000 C   0  0  0  0  0  0  0  0  0  0  0  0
    8.0622   -4.0000    0.0000 C   0  0  0  0  0  0  0  0  0  0  0  0
    4.5981   -1.0000    0.0000 C   0  0  0  0  0  0  0  0  0  0  0  0
    5.4641   -3.5000    0.0000 C   0  0  0  0  0  0  0  0  0  0  0  0
    3.7320   -2.5000    0.0000 C   0  0  0  0  0  0  0  0  0  0  0  0
    4.5981   -4.0000    0.0000 C   0  0  0  0  0  0  0  0  0  0  0  0
    3.7320   -3.5000    0.0000 C   0  0  0  0  0  0  0  0  0  0  0  0
    3.7320   -0.5000    0.0000 C   0  0  0  0  0  0  0  0  0  0  0  0
    2.8660    1.0000    0.0000 C   0  0  0  0  0  0  0  0  0  0  0  0
    2.8660    2.0000    0.0000 C   0  0  0  0  0  0  0  0  0  0  0  0
    2.0000   -3.5000    0.0000 C   0  0  0  0  0  0  0  0  0  0  0  0
    3.7320    2.5000    0.0000 C   0  0  0  0  0  0  0  0  0  0  0  0
    2.0000    2.5000    0.0000 C   0  0  0  0  0  0  0  0  0  0  0  0
    3.7320    3.5000    0.0000 C   0  0  0  0  0  0  0  0  0  0  0  0
    2.0000    3.5000    0.0000 C   0  0  0  0  0  0  0  0  0  0  0  0
    2.8660    4.0000    0.0000 C   0  0  0  0  0  0  0  0  0  0  0  0
    6.7287   -1.5250    0.0000 H   0  0  0  0  0  0  0  0  0  0  0  0
    5.9316   -1.5250    0.0000 H   0  0  0  0  0  0  0  0  0  0  0  0
    6.5856   -3.3923    0.0000 H   0  0  0  0  0  0  0  0  0  0  0  0
    6.9841   -4.0826    0.0000 H   0  0  0  0  0  0  0  0  0  0  0  0
    8.4607   -1.5250    0.0000 H   0  0  0  0  0  0  0  0  0  0  0  0
    7.6636   -1.5250    0.0000 H   0  0  0  0  0  0  0  0  0  0  0  0
    7.6636   -4.4750    0.0000 H   0  0  0  0  0  0  0  0  0  0  0  0
    8.4607   -4.4750    0.0000 H   0  0  0  0  0  0  0  0  0  0  0  0
    9.5388   -2.6077    0.0000 H   0  0  0  0  0  0  0  0  0  0  0  0
    9.1403   -1.9174    0.0000 H   0  0  0  0  0  0  0  0  0  0  0  0
    5.2087   -1.1077    0.0000 H   0  0  0  0  0  0  0  0  0  0  0  0
    4.8101   -0.4174    0.0000 H   0  0  0  0  0  0  0  0  0  0  0  0
    6.0010   -3.8100    0.0000 H   0  0  0  0  0  0  0  0  0  0  0  0
    3.1951   -2.1900    0.0000 H   0  0  0  0  0  0  0  0  0  0  0  0
    4.2690    0.8100    0.0000 H   0  0  0  0  0  0  0  0  0  0  0  0
    2.2554    1.1077    0.0000 H   0  0  0  0  0  0  0  0  0  0  0  0
    2.6540    0.4174    0.0000 H   0  0  0  0  0  0  0  0  0  0  0  0
    2.3100   -2.9631    0.0000 H   0  0  0  0  0  0  0  0  0  0  0  0
    1.4631   -3.1900    0.0000 H   0  0  0  0  0  0  0  0  0  0  0  0
    1.6900   -4.0369    0.0000 H   0  0  0  0  0  0  0  0  0  0  0  0
    4.2690    2.1900    0.0000 H   0  0  0  0  0  0  0  0  0  0  0  0
    1.4631    2.1900    0.0000 H   0  0  0  0  0  0  0  0  0  0  0  0
    4.2690    3.8100    0.0000 H   0  0  0  0  0  0  0  0  0  0  0  0
    1.4631    3.8100    0.0000 H   0  0  0  0  0  0  0  0  0  0  0  0
  1 28  1  0  0  0  0 
  2 13  1  0  0  0  0 
  2 14  1  0  0  0  0 
  3 19  1  0  0  0  0 
  3 23  1  0  0  0  0 
  4 18  2  0  0  0  0 
  5 20  2  0  0  0  0 
  6  9  1  0  0  0  0 
  6 10  1  0  0  0  0 
  6 11  1  0  0  0  0 
  7 12  1  0  0  0  0 
  7 15  1  0  0  0  0 
  7 17  1  0  0  0  0 
  8 20  1  0  0  0  0 
  8 21  1  0  0  0  0 
  8 43  1  0  0  0  0 
  9 12  1  0  0  0  0 
  9 29  1  0  0  0  0 
  9 30  1  0  0  0  0 
 10 14  1  0  0  0  0 
 10 31  1  0  0  0  0 
 10 32  1  0  0  0  0 
 11 13  1  0  0  0  0 
 11 33  1  0  0  0  0 
 11 34  1  0  0  0  0 
 12 16  2  0  0  0  0 
 13 37  1  0  0  0  0 
 13 38  1  0  0  0  0 
 14 35  1  0  0  0  0 
 14 36  1  0  0  0  0 
 15 20  1  0  0  0  0 
 15 39  1  0  0  0  0 
 15 40  1  0  0  0  0 
 16 18  1  0  0  0  0 
 16 41  1  0  0  0  0 
 17 19  2  0  0  0  0 
 17 42  1  0  0  0  0 
 18 19  1  0  0  0  0 
 21 22  1  0  0  0  0 
 21 44  1  0  0  0  0 
 21 45  1  0  0  0  0 
 22 24  2  0  0  0  0 
 22 25  1  0  0  0  0 
 23 46  1  0  0  0  0 
 23 47  1  0  0  0  0 
 23 48  1  0  0  0  0 
 24 26  1  0  0  0  0 
 24 49  1  0  0  0  0 
 25 27  2  0  0  0  0 
 25 50  1  0  0  0  0 
 26 28  2  0  0  0  0 
 26 51  1  0  0  0  0 
 27 28  1  0  0  0  0 
 27 52  1  0  0  0  0 
M  END
> <cdk:Title>
30544573

> <cdk:Remark>
null

> <PUBCHEM_COMPOUND_CID>
30544573

> <PUBCHEM_COMPOUND_CANONICALIZED>
1

> <PUBCHEM_CACTVS_COMPLEXITY>
623

> <PUBCHEM_CACTVS_HBOND_ACCEPTOR>
7

> <PUBCHEM_CACTVS_HBOND_DONOR>
1

> <PUBCHEM_CACTVS_ROTATABLE_BOND>
7

> <PUBCHEM_CACTVS_SUBSKEYS>
AAADceB7OQAAAAAAAAAAAAAAAAAAAAAAAAA8QIAAAAAAAAABAAAAHwAQAAAADAzhmA4yAIPABACIAqVWUAKCCAAgAgAIiIDIBMgKYCKAkTWXIAhg1gCYiccQgAAOAAAAAAAAAAAAAAAAAAAAAAAAAAAAAA==

> <PUBCHEM_IUPAC_OPENEYE_NAME>
N-[(4-fluorophenyl)methyl]-2-[5-methoxy-2-(morpholinomethyl)-4-oxo-1-pyridyl]acetamide

> <PUBCHEM_IUPAC_CAS_NAME>
N-[(4-fluorophenyl)methyl]-2-[5-methoxy-2-(4-morpholinylmethyl)-4-oxo-1-pyridinyl]acetamide

> <PUBCHEM_IUPAC_NAME>
N-[(4-fluorophenyl)methyl]-2-[5-methoxy-2-(morpholin-4-ylmethyl)-4-oxopyridin-1-yl]acetamide

> <PUBCHEM_IUPAC_SYSTEMATIC_NAME>
N-[(4-fluorophenyl)methyl]-2-[5-methoxy-2-(morpholin-4-ylmethyl)-4-oxidanylidene-pyridin-1-yl]ethanamide

> <PUBCHEM_IUPAC_TRADITIONAL_NAME>
N-(4-fluorobenzyl)-2-[4-keto-5-methoxy-2-(morpholinomethyl)-1-pyridyl]acetamide

> <PUBCHEM_IUPAC_INCHI>
InChI=1S/C20H24FN3O4/c1-27-19-13-24(14-20(26)22-11-15-2-4-16(21)5-3-15)17(10-18(19)25)12-23-6-8-28-9-7-23/h2-5,10,13H,6-9,11-12,14H2,1H3,(H,22,26)

> <PUBCHEM_IUPAC_INCHIKEY>
GHALBOMSNGXQSF-UHFFFAOYSA-N

> <PUBCHEM_XLOGP3_AA>
0.9

> <PUBCHEM_EXACT_MASS>
389.175084

> <PUBCHEM_MOLECULAR_FORMULA>
C20H24FN3O4

> <PUBCHEM_MOLECULAR_WEIGHT>
389.420663

> <PUBCHEM_OPENEYE_CAN_SMILES>
COC1=CN(C(=CC1=O)CN2CCOCC2)CC(=O)NCC3=CC=C(C=C3)F

> <PUBCHEM_OPENEYE_ISO_SMILES>
COC1=CN(C(=CC1=O)CN2CCOCC2)CC(=O)NCC3=CC=C(C=C3)F

> <PUBCHEM_CACTVS_TPSA>
71.1

> <PUBCHEM_MONOISOTOPIC_WEIGHT>
389.175084

> <PUBCHEM_TOTAL_CHARGE>
0

> <PUBCHEM_HEAVY_ATOM_COUNT>
28

> <PUBCHEM_ATOM_DEF_STEREO_COUNT>
0

> <PUBCHEM_ATOM_UDEF_STEREO_COUNT>
0

> <PUBCHEM_BOND_DEF_STEREO_COUNT>
0

> <PUBCHEM_BOND_UDEF_STEREO_COUNT>
0

> <PUBCHEM_ISOTOPIC_ATOM_COUNT>
0

> <PUBCHEM_COMPONENT_COUNT>
1

> <PUBCHEM_CACTVS_TAUTO_COUNT>
2

> <PUBCHEM_COORDINATE_TYPE>
1

> <PUBCHEM_BONDANNOTATIONS>
12  16  8

$$$$
7582516
  CDK     1229141458

 49 52  0  0  0  0  0  0  0  0999 V2000
    9.0115   -1.5446    0.0000 S   0  0  0  0  0  0  0  0  0  0  0  0
    6.5306   -2.3536    0.0000 S   0  0  0  0  0  0  0  0  0  0  0  0
    9.8205   -2.1323    0.0000 O   0  0  0  0  0  0  0  0  0  0  0  0
    9.8205   -0.9568    0.0000 O   0  0  0  0  0  0  0  0  0  0  0  0
    4.9428   -3.2766    0.0000 O   0  0  0  0  0  0  0  0  0  0  0  0
    3.6473    2.5335    0.0000 O   0  0  0  0  0  0  0  0  0  0  0  0
    2.3090    1.0472    0.0000 O   0  0  0  0  0  0  0  0  0  0  0  0
    6.5306   -0.7355    0.0000 N   0  0  0  0  0  0  0  0  0  0  0  0
    4.9428   -1.5446    0.0000 N   0  0  0  0  0  0  0  0  0  0  0  0
    7.4817   -1.0446    0.0000 C   0  0  2  0  0  0  0  0  0  0  0  0
    7.4817   -2.0446    0.0000 C   0  0  1  0  0  0  0  0  0  0  0  0
    8.4279   -0.7398    0.0000 C   0  0  0  0  0  0  0  0  0  0  0  0
    8.4279   -2.3493    0.0000 C   0  0  0  0  0  0  0  0  0  0  0  0
    5.9428   -1.5446    0.0000 C   0  0  0  0  0  0  0  0  0  0  0  0
    3.4428   -2.4106    0.0000 C   0  0  0  0  0  0  0  0  0  0  0  0
    2.5768   -1.9106    0.0000 C   0  0  0  0  0  0  0  0  0  0  0  0
    2.5768   -2.9106    0.0000 C   0  0  0  0  0  0  0  0  0  0  0  0
    6.2216    0.2155    0.0000 C   0  0  0  0  0  0  0  0  0  0  0  0
    4.4428   -2.4106    0.0000 C   0  0  0  0  0  0  0  0  0  0  0  0
    5.2435    0.4234    0.0000 C   0  0  0  0  0  0  0  0  0  0  0  0
    4.9344    1.3745    0.0000 C   0  0  0  0  0  0  0  0  0  0  0  0
    4.5743   -0.3197    0.0000 C   0  0  0  0  0  0  0  0  0  0  0  0
    3.9563    1.5824    0.0000 C   0  0  0  0  0  0  0  0  0  0  0  0
    3.5962   -0.1118    0.0000 C   0  0  0  0  0  0  0  0  0  0  0  0
    3.2872    0.8393    0.0000 C   0  0  0  0  0  0  0  0  0  0  0  0
    4.3164    3.2766    0.0000 C   0  0  0  0  0  0  0  0  0  0  0  0
    2.0000    1.9982    0.0000 C   0  0  0  0  0  0  0  0  0  0  0  0
    7.4828   -0.1946    0.0000 H   0  0  0  0  0  0  0  0  0  0  0  0
    7.4828   -2.8946    0.0000 H   0  0  0  0  0  0  0  0  0  0  0  0
    8.9653   -0.4306    0.0000 H   0  0  0  0  0  0  0  0  0  0  0  0
    8.1769   -0.1729    0.0000 H   0  0  0  0  0  0  0  0  0  0  0  0
    8.1769   -2.9162    0.0000 H   0  0  0  0  0  0  0  0  0  0  0  0
    8.9653   -2.6585    0.0000 H   0  0  0  0  0  0  0  0  0  0  0  0
    3.6033   -1.8117    0.0000 H   0  0  0  0  0  0  0  0  0  0  0  0
    2.7889   -1.3280    0.0000 H   0  0  0  0  0  0  0  0  0  0  0  0
    1.9662   -1.8029    0.0000 H   0  0  0  0  0  0  0  0  0  0  0  0
    1.9662   -3.0182    0.0000 H   0  0  0  0  0  0  0  0  0  0  0  0
    2.7889   -3.4932    0.0000 H   0  0  0  0  0  0  0  0  0  0  0  0
    6.8356    0.3018    0.0000 H   0  0  0  0  0  0  0  0  0  0  0  0
    6.2432    0.8351    0.0000 H   0  0  0  0  0  0  0  0  0  0  0  0
    5.3493    1.8352    0.0000 H   0  0  0  0  0  0  0  0  0  0  0  0
    4.7659   -0.9094    0.0000 H   0  0  0  0  0  0  0  0  0  0  0  0
    3.1813   -0.5726    0.0000 H   0  0  0  0  0  0  0  0  0  0  0  0
    4.7772    2.8617    0.0000 H   0  0  0  0  0  0  0  0  0  0  0  0
    4.7313    3.7374    0.0000 H   0  0  0  0  0  0  0  0  0  0  0  0
    3.8557    3.6915    0.0000 H   0  0  0  0  0  0  0  0  0  0  0  0
    2.5897    2.1898    0.0000 H   0  0  0  0  0  0  0  0  0  0  0  0
    1.8084    2.5879    0.0000 H   0  0  0  0  0  0  0  0  0  0  0  0
    1.4103    1.8066    0.0000 H   0  0  0  0  0  0  0  0  0  0  0  0
  1  3  2  0  0  0  0 
  1  4  2  0  0  0  0 
  1 12  1  0  0  0  0 
  1 13  1  0  0  0  0 
  2 11  1  0  0  0  0 
  2 14  1  0  0  0  0 
  5 19  2  0  0  0  0 
  6 23  1  0  0  0  0 
  6 26  1  0  0  0  0 
  7 25  1  0  0  0  0 
  7 27  1  0  0  0  0 
  8 10  1  0  0  0  0 
  8 14  1  0  0  0  0 
  8 18  1  0  0  0  0 
  9 14  2  0  0  0  0 
  9 19  1  0  0  0  0 
 10 11  1  0  0  0  0 
 10 12  1  0  0  0  0 
 10 28  1  6  0  0  0 
 11 13  1  0  0  0  0 
 11 29  1  6  0  0  0 
 12 30  1  0  0  0  0 
 12 31  1  0  0  0  0 
 13 32  1  0  0  0  0 
 13 33  1  0  0  0  0 
 15 16  1  0  0  0  0 
 15 17  1  0  0  0  0 
 15 19  1  0  0  0  0 
 15 34  1  0  0  0  0 
 16 17  1  0  0  0  0 
 16 35  1  0  0  0  0 
 16 36  1  0  0  0  0 
 17 37  1  0  0  0  0 
 17 38  1  0  0  0  0 
 18 20  1  0  0  0  0 
 18 39  1  0  0  0  0 
 18 40  1  0  0  0  0 
 20 21  2  0  0  0  0 
 20 22  1  0  0  0  0 
 21 23  1  0  0  0  0 
 21 41  1  0  0  0  0 
 22 24  2  0  0  0  0 
 22 42  1  0  0  0  0 
 23 25  2  0  0  0  0 
 24 25  1  0  0  0  0 
 24 43  1  0  0  0  0 
 26 44  1  0  0  0  0 
 26 45  1  0  0  0  0 
 26 46  1  0  0  0  0 
 27 47  1  0  0  0  0 
 27 48  1  0  0  0  0 
 27 49  1  0  0  0  0 
M  END
> <cdk:Title>
7582516

> <cdk:Remark>
null

> <PUBCHEM_COMPOUND_CID>
7582516

> <PUBCHEM_COMPOUND_CANONICALIZED>
1

> <PUBCHEM_CACTVS_COMPLEXITY>
716

> <PUBCHEM_CACTVS_HBOND_ACCEPTOR>
6

> <PUBCHEM_CACTVS_HBOND_DONOR>
0

> <PUBCHEM_CACTVS_ROTATABLE_BOND>
5

> <PUBCHEM_CACTVS_SUBSKEYS>
AAADceB7OABgAAAAAAAAAAAAGAAAAWJAAAAwAAAAAAAWAAABAAAAHgQAAAAADSzF2AazBoMABAqoAiFSNHDCGAFgIBAJiAEOjIgNJjKkuRuEMCpkwBGqqAew0BIOIAABAAAAQABAAAIAAACAAAAAAAAAAA==

> <PUBCHEM_IUPAC_OPENEYE_NAME>
N-[(3aS,6aS)-3-[(3,4-dimethoxyphenyl)methyl]-5,5-dioxo-3a,4,6,6a-tetrahydrothieno[3,4-d]thiazol-2-ylidene]cyclopropanecarboxamide

> <PUBCHEM_IUPAC_CAS_NAME>
N-[(3aS,6aS)-3-[(3,4-dimethoxyphenyl)methyl]-5,5-dioxo-3a,4,6,6a-tetrahydrothieno[3,4-d]thiazol-2-ylidene]cyclopropanecarboxamide

> <PUBCHEM_IUPAC_NAME>
N-[(3aS,6aS)-3-[(3,4-dimethoxyphenyl)methyl]-5,5-dioxo-3a,4,6,6a-tetrahydrothieno[3,4-d][1,3]thiazol-2-ylidene]cyclopropanecarboxamide

> <PUBCHEM_IUPAC_SYSTEMATIC_NAME>
N-[(3aS,6aS)-3-[(3,4-dimethoxyphenyl)methyl]-5,5-bis(oxidanylidene)-3a,4,6,6a-tetrahydrothieno[3,4-d][1,3]thiazol-2-ylidene]cyclopropanecarboxamide

> <PUBCHEM_IUPAC_TRADITIONAL_NAME>
N-[(3aS,6aS)-5,5-diketo-3-veratryl-3a,4,6,6a-tetrahydrothieno[3,4-d]thiazol-2-ylidene]cyclopropanecarboxamide

> <PUBCHEM_IUPAC_INCHI>
InChI=1S/C18H22N2O5S2/c1-24-14-6-3-11(7-15(14)25-2)8-20-13-9-27(22,23)10-16(13)26-18(20)19-17(21)12-4-5-12/h3,6-7,12-13,16H,4-5,8-10H2,1-2H3/t13-,16+/m0/s1

> <PUBCHEM_IUPAC_INCHIKEY>
PISDFKBJTJLVJV-XJKSGUPXSA-N

> <PUBCHEM_XLOGP3_AA>
1.7

> <PUBCHEM_EXACT_MASS>
410.097014

> <PUBCHEM_MOLECULAR_FORMULA>
C18H22N2O5S2

> <PUBCHEM_MOLECULAR_WEIGHT>
410.50768

> <PUBCHEM_OPENEYE_CAN_SMILES>
COC1=C(C=C(C=C1)CN2C3CS(=O)(=O)CC3SC2=NC(=O)C4CC4)OC

> <PUBCHEM_OPENEYE_ISO_SMILES>
COC1=C(C=C(C=C1)CN2[C@H]3CS(=O)(=O)C[C@H]3SC2=NC(=O)C4CC4)OC

> <PUBCHEM_CACTVS_TPSA>
119

> <PUBCHEM_MONOISOTOPIC_WEIGHT>
410.097014

> <PUBCHEM_TOTAL_CHARGE>
0

> <PUBCHEM_HEAVY_ATOM_COUNT>
27

> <PUBCHEM_ATOM_DEF_STEREO_COUNT>
2

> <PUBCHEM_ATOM_UDEF_STEREO_COUNT>
0

> <PUBCHEM_BOND_DEF_STEREO_COUNT>
0

> <PUBCHEM_BOND_UDEF_STEREO_COUNT>
0

> <PUBCHEM_ISOTOPIC_ATOM_COUNT>
0

> <PUBCHEM_COMPONENT_COUNT>
1

> <PUBCHEM_CACTVS_TAUTO_COUNT>
1

> <PUBCHEM_COORDINATE_TYPE>
1

> <PUBCHEM_BONDANNOTATIONS>
10  28  6

$$$$
37551805
  CDK     1229141458

 47 50  0  0  0  0  0  0  0  0999 V2000
    8.7788    0.5839    0.0000 S   0  0  0  0  0  0  0  0  0  0  0  0
    8.2788    1.4499    0.0000 O   0  0  0  0  0  0  0  0  0  0  0  0
    9.2788   -0.2821    0.0000 O   0  0  0  0  0  0  0  0  0  0  0  0
   12.2708    2.6186    0.0000 O   0  0  0  0  0  0  0  0  0  0  0  0
   14.0410    2.6080    0.0000 O   0  0  0  0  0  0  0  0  0  0  0  0
    3.5827   -1.4161    0.0000 N   0  0  0  0  0  0  0  0  0  0  0  0
    7.9128    0.0839    0.0000 N   0  0  0  0  0  0  0  0  0  0  0  0
    2.0000   -1.7525    0.0000 C   0  0  0  0  0  0  0  0  0  0  0  0
    2.5000   -2.6186    0.0000 C   0  0  0  0  0  0  0  0  0  0  0  0
    2.6691   -1.0094    0.0000 C   0  0  0  0  0  0  0  0  0  0  0  0
    3.4782   -2.4106    0.0000 C   0  0  0  0  0  0  0  0  0  0  0  0
    4.4487   -0.9161    0.0000 C   0  0  0  0  0  0  0  0  0  0  0  0
    4.4487    0.0839    0.0000 C   0  0  0  0  0  0  0  0  0  0  0  0
    5.3147   -1.4161    0.0000 C   0  0  0  0  0  0  0  0  0  0  0  0
    6.1808    0.0839    0.0000 C   0  0  0  0  0  0  0  0  0  0  0  0
    5.3147    0.5839    0.0000 C   0  0  0  0  0  0  0  0  0  0  0  0
    6.1808   -0.9161    0.0000 C   0  0  0  0  0  0  0  0  0  0  0  0
    7.0468    0.5839    0.0000 C   0  0  0  0  0  0  0  0  0  0  0  0
    9.6449    1.0839    0.0000 C   0  0  0  0  0  0  0  0  0  0  0  0
   10.5109    0.5839    0.0000 C   0  0  0  0  0  0  0  0  0  0  0  0
   11.3769    1.0839    0.0000 C   0  0  0  0  0  0  0  0  0  0  0  0
    9.6449    2.0839    0.0000 C   0  0  0  0  0  0  0  0  0  0  0  0
   11.3769    2.0839    0.0000 C   0  0  0  0  0  0  0  0  0  0  0  0
   10.5109    2.5839    0.0000 C   0  0  0  0  0  0  0  0  0  0  0  0
   12.2708    0.5492    0.0000 C   0  0  0  0  0  0  0  0  0  0  0  0
   13.1769    1.0631    0.0000 C   0  0  0  0  0  0  0  0  0  0  0  0
   13.1769    2.1047    0.0000 C   0  0  0  0  0  0  0  0  0  0  0  0
    1.5851   -1.2918    0.0000 H   0  0  0  0  0  0  0  0  0  0  0  0
    1.4984   -2.1170    0.0000 H   0  0  0  0  0  0  0  0  0  0  0  0
    1.9336   -2.8707    0.0000 H   0  0  0  0  0  0  0  0  0  0  0  0
    2.6916   -3.2082    0.0000 H   0  0  0  0  0  0  0  0  0  0  0  0
    2.9791   -0.4724    0.0000 H   0  0  0  0  0  0  0  0  0  0  0  0
    2.1675   -0.6450    0.0000 H   0  0  0  0  0  0  0  0  0  0  0  0
    3.5430   -3.0272    0.0000 H   0  0  0  0  0  0  0  0  0  0  0  0
    4.0982   -2.4106    0.0000 H   0  0  0  0  0  0  0  0  0  0  0  0
    3.9118    0.3939    0.0000 H   0  0  0  0  0  0  0  0  0  0  0  0
    5.3147   -2.0361    0.0000 H   0  0  0  0  0  0  0  0  0  0  0  0
    5.3147    1.2039    0.0000 H   0  0  0  0  0  0  0  0  0  0  0  0
    6.7177   -1.2261    0.0000 H   0  0  0  0  0  0  0  0  0  0  0  0
    7.4453    1.0588    0.0000 H   0  0  0  0  0  0  0  0  0  0  0  0
    6.6483    1.0588    0.0000 H   0  0  0  0  0  0  0  0  0  0  0  0
    7.9128   -0.5361    0.0000 H   0  0  0  0  0  0  0  0  0  0  0  0
   10.5109   -0.0361    0.0000 H   0  0  0  0  0  0  0  0  0  0  0  0
    9.1079    2.3939    0.0000 H   0  0  0  0  0  0  0  0  0  0  0  0
   10.5109    3.2039    0.0000 H   0  0  0  0  0  0  0  0  0  0  0  0
   12.2637   -0.0707    0.0000 H   0  0  0  0  0  0  0  0  0  0  0  0
   13.7127    0.7510    0.0000 H   0  0  0  0  0  0  0  0  0  0  0  0
  1  2  2  0  0  0  0 
  1  3  2  0  0  0  0 
  1  7  1  0  0  0  0 
  1 19  1  0  0  0  0 
  4 23  1  0  0  0  0 
  4 27  1  0  0  0  0 
  5 27  2  0  0  0  0 
  6 10  1  0  0  0  0 
  6 11  1  0  0  0  0 
  6 12  1  0  0  0  0 
  7 18  1  0  0  0  0 
  7 42  1  0  0  0  0 
  8  9  1  0  0  0  0 
  8 10  1  0  0  0  0 
  8 28  1  0  0  0  0 
  8 29  1  0  0  0  0 
  9 11  1  0  0  0  0 
  9 30  1  0  0  0  0 
  9 31  1  0  0  0  0 
 10 32  1  0  0  0  0 
 10 33  1  0  0  0  0 
 11 34  1  0  0  0  0 
 11 35  1  0  0  0  0 
 12 13  2  0  0  0  0 
 12 14  1  0  0  0  0 
 13 16  1  0  0  0  0 
 13 36  1  0  0  0  0 
 14 17  2  0  0  0  0 
 14 37  1  0  0  0  0 
 15 16  2  0  0  0  0 
 15 17  1  0  0  0  0 
 15 18  1  0  0  0  0 
 16 38  1  0  0  0  0 
 17 39  1  0  0  0  0 
 18 40  1  0  0  0  0 
 18 41  1  0  0  0  0 
 19 20  2  0  0  0  0 
 19 22  1  0  0  0  0 
 20 21  1  0  0  0  0 
 20 43  1  0  0  0  0 
 21 23  2  0  0  0  0 
 21 25  1  0  0  0  0 
 22 24  2  0  0  0  0 
 22 44  1  0  0  0  0 
 23 24  1  0  0  0  0 
 24 45  1  0  0  0  0 
 25 26  2  0  0  0  0 
 25 46  1  0  0  0  0 
 26 27  1  0  0  0  0 
 26 47  1  0  0  0  0 
M  END
> <cdk:Title>
37551805

> <cdk:Remark>
null

> <PUBCHEM_COMPOUND_CID>
37551805

> <PUBCHEM_COMPOUND_CANONICALIZED>
1

> <PUBCHEM_CACTVS_COMPLEXITY>
658

> <PUBCHEM_CACTVS_HBOND_ACCEPTOR>
6

> <PUBCHEM_CACTVS_HBOND_DONOR>
1

> <PUBCHEM_CACTVS_ROTATABLE_BOND>
5

> <PUBCHEM_CACTVS_SUBSKEYS>
AAADceB7OABAAAAAAAAAAAAAAAAAAWAAAAAwYIAAAAAAAACBQAAAHgQQQAAADAzB2AQwz4NABAKIAiTSSHDCCBAhIgAIiJgObMgMJiLEsZuGOijkwBHI6YeQwCAOCIAAgAAIAAARAAEAABAAAAAAAAAAAA==

> <PUBCHEM_IUPAC_OPENEYE_NAME>
2-oxo-N-[(4-pyrrolidin-1-ylphenyl)methyl]chromene-6-sulfonamide

> <PUBCHEM_IUPAC_CAS_NAME>
2-oxo-N-[[4-(1-pyrrolidinyl)phenyl]methyl]-1-benzopyran-6-sulfonamide

> <PUBCHEM_IUPAC_NAME>
2-oxo-N-[(4-pyrrolidin-1-ylphenyl)methyl]chromene-6-sulfonamide

> <PUBCHEM_IUPAC_SYSTEMATIC_NAME>
2-oxidanylidene-N-[(4-pyrrolidin-1-ylphenyl)methyl]chromene-6-sulfonamide

> <PUBCHEM_IUPAC_TRADITIONAL_NAME>
2-keto-N-(4-pyrrolidinobenzyl)chromene-6-sulfonamide

> <PUBCHEM_IUPAC_INCHI>
InChI=1S/C20H20N2O4S/c23-20-10-5-16-13-18(8-9-19(16)26-20)27(24,25)21-14-15-3-6-17(7-4-15)22-11-1-2-12-22/h3-10,13,21H,1-2,11-12,14H2

> <PUBCHEM_IUPAC_INCHIKEY>
SNJIRPIHLNXYDI-UHFFFAOYSA-N

> <PUBCHEM_XLOGP3_AA>
3

> <PUBCHEM_EXACT_MASS>
384.114378

> <PUBCHEM_MOLECULAR_FORMULA>
C20H20N2O4S

> <PUBCHEM_MOLECULAR_WEIGHT>
384.4488

> <PUBCHEM_OPENEYE_CAN_SMILES>
C1CCN(C1)C2=CC=C(C=C2)CNS(=O)(=O)C3=CC4=C(C=C3)OC(=O)C=C4

> <PUBCHEM_OPENEYE_ISO_SMILES>
C1CCN(C1)C2=CC=C(C=C2)CNS(=O)(=O)C3=CC4=C(C=C3)OC(=O)C=C4

> <PUBCHEM_CACTVS_TPSA>
84.1

> <PUBCHEM_MONOISOTOPIC_WEIGHT>
384.114378

> <PUBCHEM_TOTAL_CHARGE>
0

> <PUBCHEM_HEAVY_ATOM_COUNT>
27

> <PUBCHEM_ATOM_DEF_STEREO_COUNT>
0

> <PUBCHEM_ATOM_UDEF_STEREO_COUNT>
0

> <PUBCHEM_BOND_DEF_STEREO_COUNT>
0

> <PUBCHEM_BOND_UDEF_STEREO_COUNT>
0

> <PUBCHEM_ISOTOPIC_ATOM_COUNT>
0

> <PUBCHEM_COMPONENT_COUNT>
1

> <PUBCHEM_CACTVS_TAUTO_COUNT>
1

> <PUBCHEM_COORDINATE_TYPE>
1

> <PUBCHEM_BONDANNOTATIONS>
12  13  8

$$$$
