15754740
  CDK     0104151102

 16 15  0  0  0  0  0  0  0  0999 V2000
    4.6350    0.7430    0.0000 F   0  0  0  0  0  0  0  0  0  0  0  0
    5.6350   -0.9890    0.0000 F   0  0  0  0  0  0  0  0  0  0  0  0
    6.8671    0.8770    0.0000 F   0  0  0  0  0  0  0  0  0  0  0  0
    5.5010    1.2430    0.0000 F   0  0  0  0  0  0  0  0  0  0  0  0
    6.5010   -0.4890    0.0000 F   0  0  0  0  0  0  0  0  0  0  0  0
    2.5369   -0.6230    0.0000 N   0  0  0  0  0  0  0  0  0  0  0  0
    4.2690   -0.6230    0.0000 C   0  0  0  0  0  0  0  0  0  0  0  0
    5.1350   -0.1230    0.0000 C   0  0  0  0  0  0  0  0  0  0  0  0
    3.4030   -0.1230    0.0000 C   0  0  0  0  0  0  0  0  0  0  0  0
    6.0010    0.3770    0.0000 C   0  0  0  0  0  0  0  0  0  0  0  0
    3.8705   -1.0980    0.0000 H   0  0  0  0  0  0  0  0  0  0  0  0
    4.6675   -1.0980    0.0000 H   0  0  0  0  0  0  0  0  0  0  0  0
    3.8015    0.3519    0.0000 H   0  0  0  0  0  0  0  0  0  0  0  0
    3.0044    0.3519    0.0000 H   0  0  0  0  0  0  0  0  0  0  0  0
    2.0000   -0.3130    0.0000 H   0  0  0  0  0  0  0  0  0  0  0  0
    2.5369   -1.2430    0.0000 H   0  0  0  0  0  0  0  0  0  0  0  0
  1  8  1  0  0  0  0 
  2  8  1  0  0  0  0 
  3 10  1  0  0  0  0 
  4 10  1  0  0  0  0 
  5 10  1  0  0  0  0 
  6  9  1  0  0  0  0 
  6 15  1  0  0  0  0 
  6 16  1  0  0  0  0 
  7  8  1  0  0  0  0 
  7  9  1  0  0  0  0 
  7 11  1  0  0  0  0 
  7 12  1  0  0  0  0 
  8 10  1  0  0  0  0 
  9 13  1  0  0  0  0 
  9 14  1  0  0  0  0 
M  END
> <cdk:Title>
15754740

> <cdk:Remark>
null

> <PUBCHEM_COMPOUND_CID>
15754740

> <PUBCHEM_COMPOUND_CANONICALIZED>
1

> <PUBCHEM_CACTVS_COMPLEXITY>
107

> <PUBCHEM_CACTVS_HBOND_ACCEPTOR>
6

> <PUBCHEM_CACTVS_HBOND_DONOR>
1

> <PUBCHEM_CACTVS_ROTATABLE_BOND>
2

> <PUBCHEM_CACTVS_SUBSKEYS>
AAADcYBiAcAAAAAAAAAAAAAAAAAAAAAAAAAAAAAAAAAAAAAAAAAAHQAQAAAACADBABQAAABAAAAAAAAAAAAAAAAAAAAAAIAAAAAAAAAAgAAAAAAAEAAAAAAAAAAAAAAAAAAAAAAAAAAAAAAAAAAAAAAAAA==

> <PUBCHEM_IUPAC_OPENEYE_NAME>
3,3,4,4,4-pentafluorobutan-1-amine

> <PUBCHEM_IUPAC_CAS_NAME>
3,3,4,4,4-pentafluoro-1-butanamine

> <PUBCHEM_IUPAC_NAME>
3,3,4,4,4-pentafluorobutan-1-amine

> <PUBCHEM_IUPAC_SYSTEMATIC_NAME>
3,3,4,4,4-pentakis(fluoranyl)butan-1-amine

> <PUBCHEM_IUPAC_TRADITIONAL_NAME>
3,3,4,4,4-pentafluorobutylamine

> <PUBCHEM_IUPAC_INCHI>
InChI=1S/C4H6F5N/c5-3(6,1-2-10)4(7,8)9/h1-2,10H2

> <PUBCHEM_IUPAC_INCHIKEY>
QPURPAZMWFFRHE-UHFFFAOYSA-N

> <PUBCHEM_XLOGP3_AA>
1.4

> <PUBCHEM_EXACT_MASS>
163.04204

> <PUBCHEM_MOLECULAR_FORMULA>
C4H6F5N

> <PUBCHEM_MOLECULAR_WEIGHT>
163.089156

> <PUBCHEM_OPENEYE_CAN_SMILES>
C(CN)C(C(F)(F)F)(F)F

> <PUBCHEM_OPENEYE_ISO_SMILES>
C(CN)C(C(F)(F)F)(F)F

> <PUBCHEM_CACTVS_TPSA>
26

> <PUBCHEM_MONOISOTOPIC_WEIGHT>
163.04204

> <PUBCHEM_TOTAL_CHARGE>
0

> <PUBCHEM_HEAVY_ATOM_COUNT>
10

> <PUBCHEM_ATOM_DEF_STEREO_COUNT>
0

> <PUBCHEM_ATOM_UDEF_STEREO_COUNT>
0

> <PUBCHEM_BOND_DEF_STEREO_COUNT>
0

> <PUBCHEM_BOND_UDEF_STEREO_COUNT>
0

> <PUBCHEM_ISOTOPIC_ATOM_COUNT>
0

> <PUBCHEM_COMPONENT_COUNT>
1

> <PUBCHEM_CACTVS_TAUTO_COUNT>
1

> <PUBCHEM_COORDINATE_TYPE>
1

$$$$
