1277846
  CDK     1223141344

 51 52  0  0  0  0  0  0  0  0999 V2000
    5.4641    6.0000    0.0000 Cl  0  0  0  0  0  0  0  0  0  0  0  0
    3.7320   -2.0000    0.0000 O   0  0  0  0  0  0  0  0  0  0  0  0
    5.4641   -3.0000    0.0000 O   0  0  0  0  0  0  0  0  0  0  0  0
    5.4641    3.0000    0.0000 O   0  0  0  0  0  0  0  0  0  0  0  0
    7.1962   -5.0000    0.0000 O   0  0  0  0  0  0  0  0  0  0  0  0
    5.4641   -5.0000    0.0000 O   0  0  0  0  0  0  0  0  0  0  0  0
    7.1962    3.0000    0.0000 N   0  0  0  0  0  0  0  0  0  0  0  0
    8.0622    0.5000    0.0000 N   0  0  0  0  0  0  0  0  0  0  0  0
    5.4641    0.0000    0.0000 C   0  0  0  0  0  0  0  0  0  0  0  0
    4.5981   -1.5000    0.0000 C   0  0  0  0  0  0  0  0  0  0  0  0
    5.4641   -2.0000    0.0000 C   0  0  0  0  0  0  0  0  0  0  0  0
    4.5981   -0.5000    0.0000 C   0  0  0  0  0  0  0  0  0  0  0  0
    7.1962    4.0000    0.0000 C   0  0  0  0  0  0  0  0  0  0  0  0
    8.0622    4.5000    0.0000 C   0  0  0  0  0  0  0  0  0  0  0  0
    6.3301   -0.5000    0.0000 C   0  0  0  0  0  0  0  0  0  0  0  0
    6.3301   -1.5000    0.0000 C   0  0  0  0  0  0  0  0  0  0  0  0
    5.4641    1.0000    0.0000 C   0  0  0  0  0  0  0  0  0  0  0  0
    6.3301    4.5000    0.0000 C   0  0  0  0  0  0  0  0  0  0  0  0
    6.3301    1.5000    0.0000 C   0  0  0  0  0  0  0  0  0  0  0  0
    8.0622    5.5000    0.0000 C   0  0  0  0  0  0  0  0  0  0  0  0
    6.3301    2.5000    0.0000 C   0  0  0  0  0  0  0  0  0  0  0  0
    8.9282    4.0000    0.0000 C   0  0  0  0  0  0  0  0  0  0  0  0
    2.8660   -1.5000    0.0000 C   0  0  0  0  0  0  0  0  0  0  0  0
    6.3301    5.5000    0.0000 C   0  0  0  0  0  0  0  0  0  0  0  0
    7.1962    6.0000    0.0000 C   0  0  0  0  0  0  0  0  0  0  0  0
    6.3301   -3.5000    0.0000 C   0  0  0  0  0  0  0  0  0  0  0  0
    2.0000   -2.0000    0.0000 C   0  0  0  0  0  0  0  0  0  0  0  0
    6.3301   -4.5000    0.0000 C   0  0  0  0  0  0  0  0  0  0  0  0
    7.1962    1.0000    0.0000 C   0  0  0  0  0  0  0  0  0  0  0  0
    7.1962   -6.0000    0.0000 C   0  0  0  0  0  0  0  0  0  0  0  0
    4.0611   -0.1900    0.0000 H   0  0  0  0  0  0  0  0  0  0  0  0
    6.8671   -0.1900    0.0000 H   0  0  0  0  0  0  0  0  0  0  0  0
    6.8671   -1.8100    0.0000 H   0  0  0  0  0  0  0  0  0  0  0  0
    4.9272    1.3100    0.0000 H   0  0  0  0  0  0  0  0  0  0  0  0
    7.7331    2.6900    0.0000 H   0  0  0  0  0  0  0  0  0  0  0  0
    5.7932    4.1900    0.0000 H   0  0  0  0  0  0  0  0  0  0  0  0
    8.5991    5.8100    0.0000 H   0  0  0  0  0  0  0  0  0  0  0  0
    8.6182    3.4631    0.0000 H   0  0  0  0  0  0  0  0  0  0  0  0
    9.4651    3.6900    0.0000 H   0  0  0  0  0  0  0  0  0  0  0  0
    9.2382    4.5369    0.0000 H   0  0  0  0  0  0  0  0  0  0  0  0
    3.2646   -1.0250    0.0000 H   0  0  0  0  0  0  0  0  0  0  0  0
    2.4675   -1.0250    0.0000 H   0  0  0  0  0  0  0  0  0  0  0  0
    7.1962    6.6200    0.0000 H   0  0  0  0  0  0  0  0  0  0  0  0
    6.9407   -3.6077    0.0000 H   0  0  0  0  0  0  0  0  0  0  0  0
    6.5422   -2.9174    0.0000 H   0  0  0  0  0  0  0  0  0  0  0  0
    1.6900   -1.4631    0.0000 H   0  0  0  0  0  0  0  0  0  0  0  0
    1.4631   -2.3100    0.0000 H   0  0  0  0  0  0  0  0  0  0  0  0
    2.3100   -2.5369    0.0000 H   0  0  0  0  0  0  0  0  0  0  0  0
    6.5762   -6.0000    0.0000 H   0  0  0  0  0  0  0  0  0  0  0  0
    7.1962   -6.6200    0.0000 H   0  0  0  0  0  0  0  0  0  0  0  0
    7.8162   -6.0000    0.0000 H   0  0  0  0  0  0  0  0  0  0  0  0
  1 24  1  0  0  0  0 
  2 10  1  0  0  0  0 
  2 23  1  0  0  0  0 
  3 11  1  0  0  0  0 
  3 26  1  0  0  0  0 
  4 21  2  0  0  0  0 
  5 28  1  0  0  0  0 
  5 30  1  0  0  0  0 
  6 28  2  0  0  0  0 
  7 13  1  0  0  0  0 
  7 21  1  0  0  0  0 
  7 35  1  0  0  0  0 
  8 29  3  0  0  0  0 
  9 12  2  0  0  0  0 
  9 15  1  0  0  0  0 
  9 17  1  0  0  0  0 
 10 11  2  0  0  0  0 
 10 12  1  0  0  0  0 
 11 16  1  0  0  0  0 
 12 31  1  0  0  0  0 
 13 14  2  0  0  0  0 
 13 18  1  0  0  0  0 
 14 20  1  0  0  0  0 
 14 22  1  0  0  0  0 
 15 16  2  0  0  0  0 
 15 32  1  0  0  0  0 
 16 33  1  0  0  0  0 
 17 19  2  0  0  0  0 
 17 34  1  0  0  0  0 
 18 24  2  0  0  0  0 
 18 36  1  0  0  0  0 
 19 21  1  0  0  0  0 
 19 29  1  0  0  0  0 
 20 25  2  0  0  0  0 
 20 37  1  0  0  0  0 
 22 38  1  0  0  0  0 
 22 39  1  0  0  0  0 
 22 40  1  0  0  0  0 
 23 27  1  0  0  0  0 
 23 41  1  0  0  0  0 
 23 42  1  0  0  0  0 
 24 25  1  0  0  0  0 
 25 43  1  0  0  0  0 
 26 28  1  0  0  0  0 
 26 44  1  0  0  0  0 
 26 45  1  0  0  0  0 
 27 46  1  0  0  0  0 
 27 47  1  0  0  0  0 
 27 48  1  0  0  0  0 
 30 49  1  0  0  0  0 
 30 50  1  0  0  0  0 
 30 51  1  0  0  0  0 
M  END
> <cdk:Title>
1277846

> <cdk:Remark>
null

> <PUBCHEM_COMPOUND_CID>
1277846

> <PUBCHEM_COMPOUND_CANONICALIZED>
1

> <PUBCHEM_CACTVS_COMPLEXITY>
674

> <PUBCHEM_CACTVS_HBOND_ACCEPTOR>
6

> <PUBCHEM_CACTVS_HBOND_DONOR>
1

> <PUBCHEM_CACTVS_ROTATABLE_BOND>
9

> <PUBCHEM_CACTVS_SUBSKEYS>
AAADceB7OAAEAAAAAAAAAAAAAAAAAAAAAAAwYAAAAAAAAAABQAAAHgIQAAAADA6hmCIyzoLABACYBiXSWAKiCAAhJwAIiAFG7sgNpiLFs5+GOCrk1BHK6YeQwBAOJAABAAICQABIAAIABASAAAAAAAAAAA==

> <PUBCHEM_IUPAC_OPENEYE_NAME>
methyl 2-[4-[(E)-3-(5-chloro-2-methyl-anilino)-2-cyano-3-oxo-prop-1-enyl]-2-ethoxy-phenoxy]acetate

> <PUBCHEM_IUPAC_CAS_NAME>
2-[4-[(E)-3-(5-chloro-2-methylanilino)-2-cyano-3-oxoprop-1-enyl]-2-ethoxyphenoxy]acetic acid methyl ester

> <PUBCHEM_IUPAC_NAME>
methyl 2-[4-[(E)-3-(5-chloro-2-methylanilino)-2-cyano-3-oxoprop-1-enyl]-2-ethoxyphenoxy]acetate

> <PUBCHEM_IUPAC_SYSTEMATIC_NAME>
methyl 2-[4-[(E)-3-[(5-chloranyl-2-methyl-phenyl)amino]-2-cyano-3-oxidanylidene-prop-1-enyl]-2-ethoxy-phenoxy]ethanoate

> <PUBCHEM_IUPAC_TRADITIONAL_NAME>
2-[4-[(E)-3-(5-chloro-2-methyl-anilino)-2-cyano-3-keto-prop-1-enyl]-2-ethoxy-phenoxy]acetic acid methyl ester

> <PUBCHEM_IUPAC_INCHI>
InChI=1S/C22H21ClN2O5/c1-4-29-20-10-15(6-8-19(20)30-13-21(26)28-3)9-16(12-24)22(27)25-18-11-17(23)7-5-14(18)2/h5-11H,4,13H2,1-3H3,(H,25,27)/b16-9+

> <PUBCHEM_IUPAC_INCHIKEY>
MQEANFWFZFMDHJ-CXUHLZMHSA-N

> <PUBCHEM_XLOGP3_AA>
4.9

> <PUBCHEM_EXACT_MASS>
428.113899

> <PUBCHEM_MOLECULAR_FORMULA>
C22H21ClN2O5

> <PUBCHEM_MOLECULAR_WEIGHT>
428.86554

> <PUBCHEM_OPENEYE_CAN_SMILES>
CCOC1=C(C=CC(=C1)C=C(C#N)C(=O)NC2=C(C=CC(=C2)Cl)C)OCC(=O)OC

> <PUBCHEM_OPENEYE_ISO_SMILES>
CCOC1=C(C=CC(=C1)/C=C(\C#N)/C(=O)NC2=C(C=CC(=C2)Cl)C)OCC(=O)OC

> <PUBCHEM_CACTVS_TPSA>
97.6

> <PUBCHEM_MONOISOTOPIC_WEIGHT>
428.113899

> <PUBCHEM_TOTAL_CHARGE>
0

> <PUBCHEM_HEAVY_ATOM_COUNT>
30

> <PUBCHEM_ATOM_DEF_STEREO_COUNT>
0

> <PUBCHEM_ATOM_UDEF_STEREO_COUNT>
0

> <PUBCHEM_BOND_DEF_STEREO_COUNT>
1

> <PUBCHEM_BOND_UDEF_STEREO_COUNT>
0

> <PUBCHEM_ISOTOPIC_ATOM_COUNT>
0

> <PUBCHEM_COMPONENT_COUNT>
1

> <PUBCHEM_CACTVS_TAUTO_COUNT>
2

> <PUBCHEM_COORDINATE_TYPE>
1

> <PUBCHEM_BONDANNOTATIONS>
10  11  8

$$$$
