20993973
  CDK     1223141344

 58 59  0  0  0  0  0  0  0  0999 V2000
    8.9282   -0.6550    0.0000 O   0  0  0  0  0  0  0  0  0  0  0  0
    6.3301   -1.1550    0.0000 O   0  0  0  0  0  0  0  0  0  0  0  0
    2.8660   -1.1550    0.0000 O   0  0  0  0  0  0  0  0  0  0  0  0
    7.1962    3.3450    0.0000 O   0  0  0  0  0  0  0  0  0  0  0  0
    8.0622    1.8450    0.0000 O   0  0  0  0  0  0  0  0  0  0  0  0
   10.6603    0.3450    0.0000 C   0  0  0  0  0  0  0  0  0  0  0  0
   10.6603   -0.6550    0.0000 C   0  0  0  0  0  0  0  0  0  0  0  0
   10.6603    1.3450    0.0000 C   0  0  0  0  0  0  0  0  0  0  0  0
   11.6603    0.3450    0.0000 C   0  0  0  0  0  0  0  0  0  0  0  0
    9.6602    0.3450    0.0000 C   0  0  0  0  0  0  0  0  0  0  0  0
    9.7942   -1.1550    0.0000 C   0  0  0  0  0  0  0  0  0  0  0  0
   11.5263   -1.1550    0.0000 C   0  0  0  0  0  0  0  0  0  0  0  0
    9.7942   -2.1550    0.0000 C   0  0  0  0  0  0  0  0  0  0  0  0
   10.6603   -2.6550    0.0000 C   0  0  0  0  0  0  0  0  0  0  0  0
   11.5263   -2.1550    0.0000 C   0  0  0  0  0  0  0  0  0  0  0  0
    8.0622   -1.1550    0.0000 C   0  0  0  0  0  0  0  0  0  0  0  0
   10.6603   -3.6550    0.0000 C   0  0  0  0  0  0  0  0  0  0  0  0
    7.1962   -0.6550    0.0000 C   0  0  0  0  0  0  0  0  0  0  0  0
    5.4641    0.3450    0.0000 C   0  0  0  0  0  0  0  0  0  0  0  0
    5.4641   -0.6550    0.0000 C   0  0  0  0  0  0  0  0  0  0  0  0
    6.3301    0.8450    0.0000 C   0  0  0  0  0  0  0  0  0  0  0  0
    6.3301    1.8450    0.0000 C   0  0  0  0  0  0  0  0  0  0  0  0
    4.5981    0.8450    0.0000 C   0  0  0  0  0  0  0  0  0  0  0  0
    4.5981   -1.1550    0.0000 C   0  0  0  0  0  0  0  0  0  0  0  0
    3.7320   -0.6550    0.0000 C   0  0  0  0  0  0  0  0  0  0  0  0
    3.7320    0.3450    0.0000 C   0  0  0  0  0  0  0  0  0  0  0  0
    7.1962    2.3450    0.0000 C   0  0  0  0  0  0  0  0  0  0  0  0
    2.0000   -0.6550    0.0000 C   0  0  0  0  0  0  0  0  0  0  0  0
    9.6602    0.9650    0.0000 H   0  0  0  0  0  0  0  0  0  0  0  0
    9.0402    0.3450    0.0000 H   0  0  0  0  0  0  0  0  0  0  0  0
    9.6602   -0.2750    0.0000 H   0  0  0  0  0  0  0  0  0  0  0  0
   11.6603   -0.2750    0.0000 H   0  0  0  0  0  0  0  0  0  0  0  0
   12.2803    0.3450    0.0000 H   0  0  0  0  0  0  0  0  0  0  0  0
   11.6603    0.9650    0.0000 H   0  0  0  0  0  0  0  0  0  0  0  0
   11.2803    1.3450    0.0000 H   0  0  0  0  0  0  0  0  0  0  0  0
   10.6603    1.9650    0.0000 H   0  0  0  0  0  0  0  0  0  0  0  0
   10.0403    1.3450    0.0000 H   0  0  0  0  0  0  0  0  0  0  0  0
   12.0632   -0.8450    0.0000 H   0  0  0  0  0  0  0  0  0  0  0  0
    9.2573   -2.4650    0.0000 H   0  0  0  0  0  0  0  0  0  0  0  0
   12.0632   -2.4650    0.0000 H   0  0  0  0  0  0  0  0  0  0  0  0
    7.6636   -1.6300    0.0000 H   0  0  0  0  0  0  0  0  0  0  0  0
    8.4607   -1.6300    0.0000 H   0  0  0  0  0  0  0  0  0  0  0  0
    7.5947   -0.1801    0.0000 H   0  0  0  0  0  0  0  0  0  0  0  0
    6.7976   -0.1801    0.0000 H   0  0  0  0  0  0  0  0  0  0  0  0
   10.0403   -3.6550    0.0000 H   0  0  0  0  0  0  0  0  0  0  0  0
   10.6603   -4.2750    0.0000 H   0  0  0  0  0  0  0  0  0  0  0  0
   11.2803   -3.6550    0.0000 H   0  0  0  0  0  0  0  0  0  0  0  0
    6.5422    0.2624    0.0000 H   0  0  0  0  0  0  0  0  0  0  0  0
    6.9407    0.9527    0.0000 H   0  0  0  0  0  0  0  0  0  0  0  0
    6.1181    2.4276    0.0000 H   0  0  0  0  0  0  0  0  0  0  0  0
    5.7196    1.7373    0.0000 H   0  0  0  0  0  0  0  0  0  0  0  0
    4.5981    1.4650    0.0000 H   0  0  0  0  0  0  0  0  0  0  0  0
    4.5981   -1.7750    0.0000 H   0  0  0  0  0  0  0  0  0  0  0  0
    3.1951    0.6550    0.0000 H   0  0  0  0  0  0  0  0  0  0  0  0
    2.3100   -0.1181    0.0000 H   0  0  0  0  0  0  0  0  0  0  0  0
    1.4631   -0.3450    0.0000 H   0  0  0  0  0  0  0  0  0  0  0  0
    1.6900   -1.1919    0.0000 H   0  0  0  0  0  0  0  0  0  0  0  0
    6.6592    3.6550    0.0000 H   0  0  0  0  0  0  0  0  0  0  0  0
  1 11  1  0  0  0  0 
  1 16  1  0  0  0  0 
  2 18  1  0  0  0  0 
  2 20  1  0  0  0  0 
  3 25  1  0  0  0  0 
  3 28  1  0  0  0  0 
  4 27  1  0  0  0  0 
  4 58  1  0  0  0  0 
  5 27  2  0  0  0  0 
  6  7  1  0  0  0  0 
  6  8  1  0  0  0  0 
  6  9  1  0  0  0  0 
  6 10  1  0  0  0  0 
  7 11  2  0  0  0  0 
  7 12  1  0  0  0  0 
  8 35  1  0  0  0  0 
  8 36  1  0  0  0  0 
  8 37  1  0  0  0  0 
  9 32  1  0  0  0  0 
  9 33  1  0  0  0  0 
  9 34  1  0  0  0  0 
 10 29  1  0  0  0  0 
 10 30  1  0  0  0  0 
 10 31  1  0  0  0  0 
 11 13  1  0  0  0  0 
 12 15  2  0  0  0  0 
 12 38  1  0  0  0  0 
 13 14  2  0  0  0  0 
 13 39  1  0  0  0  0 
 14 15  1  0  0  0  0 
 14 17  1  0  0  0  0 
 15 40  1  0  0  0  0 
 16 18  1  0  0  0  0 
 16 41  1  0  0  0  0 
 16 42  1  0  0  0  0 
 17 45  1  0  0  0  0 
 17 46  1  0  0  0  0 
 17 47  1  0  0  0  0 
 18 43  1  0  0  0  0 
 18 44  1  0  0  0  0 
 19 20  2  0  0  0  0 
 19 21  1  0  0  0  0 
 19 23  1  0  0  0  0 
 20 24  1  0  0  0  0 
 21 22  1  0  0  0  0 
 21 48  1  0  0  0  0 
 21 49  1  0  0  0  0 
 22 27  1  0  0  0  0 
 22 50  1  0  0  0  0 
 22 51  1  0  0  0  0 
 23 26  2  0  0  0  0 
 23 52  1  0  0  0  0 
 24 25  2  0  0  0  0 
 24 53  1  0  0  0  0 
 25 26  1  0  0  0  0 
 26 54  1  0  0  0  0 
 28 55  1  0  0  0  0 
 28 56  1  0  0  0  0 
 28 57  1  0  0  0  0 
M  END
> <cdk:Title>
20993973

> <cdk:Remark>
null

> <PUBCHEM_COMPOUND_CID>
20993973

> <PUBCHEM_COMPOUND_CANONICALIZED>
1

> <PUBCHEM_CACTVS_COMPLEXITY>
472

> <PUBCHEM_CACTVS_HBOND_ACCEPTOR>
5

> <PUBCHEM_CACTVS_HBOND_DONOR>
1

> <PUBCHEM_CACTVS_ROTATABLE_BOND>
10

> <PUBCHEM_CACTVS_SUBSKEYS>
AAADceB4OAAAAAAAAAAAAAAAAAAAAAAAAAAwYAAAAAAAAAABQAAAGgAACAAADgSgmAIyDoAABgCIAiDSCAACCAAgIAAIiAEGCIgNJzKEMRqCeCClwBUKqAeI7PzP4AABCAAIAADAAAIQABAAAAAAAAAAAA==

> <PUBCHEM_IUPAC_OPENEYE_NAME>
3-[2-[2-(2-tert-butyl-5-methyl-phenoxy)ethoxy]-4-methoxy-phenyl]propanoic acid

> <PUBCHEM_IUPAC_CAS_NAME>
3-[2-[2-(2-tert-butyl-5-methylphenoxy)ethoxy]-4-methoxyphenyl]propanoic acid

> <PUBCHEM_IUPAC_NAME>
3-[2-[2-(2-tert-butyl-5-methylphenoxy)ethoxy]-4-methoxyphenyl]propanoic acid

> <PUBCHEM_IUPAC_SYSTEMATIC_NAME>
3-[2-[2-(2-tert-butyl-5-methyl-phenoxy)ethoxy]-4-methoxy-phenyl]propanoic acid

> <PUBCHEM_IUPAC_TRADITIONAL_NAME>
3-[2-[2-(2-tert-butyl-5-methyl-phenoxy)ethoxy]-4-methoxy-phenyl]propionic acid

> <PUBCHEM_IUPAC_INCHI>
InChI=1S/C23H30O5/c1-16-6-10-19(23(2,3)4)21(14-16)28-13-12-27-20-15-18(26-5)9-7-17(20)8-11-22(24)25/h6-7,9-10,14-15H,8,11-13H2,1-5H3,(H,24,25)

> <PUBCHEM_IUPAC_INCHIKEY>
BAWHKQSQJLNVHY-UHFFFAOYSA-N

> <PUBCHEM_XLOGP3_AA>
5.3

> <PUBCHEM_EXACT_MASS>
386.209324

> <PUBCHEM_MOLECULAR_FORMULA>
C23H30O5

> <PUBCHEM_MOLECULAR_WEIGHT>
386.4813

> <PUBCHEM_OPENEYE_CAN_SMILES>
CC1=CC(=C(C=C1)C(C)(C)C)OCCOC2=C(C=CC(=C2)OC)CCC(=O)O

> <PUBCHEM_OPENEYE_ISO_SMILES>
CC1=CC(=C(C=C1)C(C)(C)C)OCCOC2=C(C=CC(=C2)OC)CCC(=O)O

> <PUBCHEM_CACTVS_TPSA>
65

> <PUBCHEM_MONOISOTOPIC_WEIGHT>
386.209324

> <PUBCHEM_TOTAL_CHARGE>
0

> <PUBCHEM_HEAVY_ATOM_COUNT>
28

> <PUBCHEM_ATOM_DEF_STEREO_COUNT>
0

> <PUBCHEM_ATOM_UDEF_STEREO_COUNT>
0

> <PUBCHEM_BOND_DEF_STEREO_COUNT>
0

> <PUBCHEM_BOND_UDEF_STEREO_COUNT>
0

> <PUBCHEM_ISOTOPIC_ATOM_COUNT>
0

> <PUBCHEM_COMPONENT_COUNT>
1

> <PUBCHEM_CACTVS_TAUTO_COUNT>
1

> <PUBCHEM_COORDINATE_TYPE>
1

> <PUBCHEM_BONDANNOTATIONS>
11  13  8

$$$$
10356185
  CDK     1223141344

 34 35  0  0  0  0  0  0  0  0999 V2000
    6.8671   -1.2500    0.0000 O   0  0  0  0  0  0  0  0  0  0  0  0
    6.0010    1.2500    0.0000 O   0  0  0  0  0  0  0  0  0  0  0  0
    8.5991   -4.2500    0.0000 O   0  0  0  0  0  0  0  0  0  0  0  0
    4.2690    4.2500    0.0000 O   0  0  0  0  0  0  0  0  0  0  0  0
    2.5369    3.2500    0.0000 O   0  0  0  0  0  0  0  0  0  0  0  0
   10.3312   -3.2500    0.0000 O   0  0  0  0  0  0  0  0  0  0  0  0
    6.0010    0.2500    0.0000 C   0  0  0  0  0  0  0  0  0  0  0  0
    6.8671   -0.2500    0.0000 C   0  0  0  0  0  0  0  0  0  0  0  0
    5.1350    1.7500    0.0000 C   0  0  0  0  0  0  0  0  0  0  0  0
    7.7331   -1.7500    0.0000 C   0  0  0  0  0  0  0  0  0  0  0  0
    5.1350    2.7500    0.0000 C   0  0  0  0  0  0  0  0  0  0  0  0
    7.7331   -2.7500    0.0000 C   0  0  0  0  0  0  0  0  0  0  0  0
    8.5991   -1.2500    0.0000 C   0  0  0  0  0  0  0  0  0  0  0  0
    4.2690    1.2500    0.0000 C   0  0  0  0  0  0  0  0  0  0  0  0
    4.2690    3.2500    0.0000 C   0  0  0  0  0  0  0  0  0  0  0  0
    8.5991   -3.2500    0.0000 C   0  0  0  0  0  0  0  0  0  0  0  0
    3.4030    2.7500    0.0000 C   0  0  0  0  0  0  0  0  0  0  0  0
    9.4651   -2.7500    0.0000 C   0  0  0  0  0  0  0  0  0  0  0  0
    9.4651   -1.7500    0.0000 C   0  0  0  0  0  0  0  0  0  0  0  0
    3.4030    1.7500    0.0000 C   0  0  0  0  0  0  0  0  0  0  0  0
    5.3905    0.3577    0.0000 H   0  0  0  0  0  0  0  0  0  0  0  0
    5.7890   -0.3326    0.0000 H   0  0  0  0  0  0  0  0  0  0  0  0
    7.4776   -0.3577    0.0000 H   0  0  0  0  0  0  0  0  0  0  0  0
    7.0791    0.3326    0.0000 H   0  0  0  0  0  0  0  0  0  0  0  0
    5.6720    3.0600    0.0000 H   0  0  0  0  0  0  0  0  0  0  0  0
    7.1962   -3.0600    0.0000 H   0  0  0  0  0  0  0  0  0  0  0  0
    4.2690    0.6300    0.0000 H   0  0  0  0  0  0  0  0  0  0  0  0
    8.5991   -0.6300    0.0000 H   0  0  0  0  0  0  0  0  0  0  0  0
    2.8660    1.4400    0.0000 H   0  0  0  0  0  0  0  0  0  0  0  0
   10.0021   -1.4400    0.0000 H   0  0  0  0  0  0  0  0  0  0  0  0
    4.8059    4.5600    0.0000 H   0  0  0  0  0  0  0  0  0  0  0  0
    8.0622   -4.5600    0.0000 H   0  0  0  0  0  0  0  0  0  0  0  0
    2.0000    2.9400    0.0000 H   0  0  0  0  0  0  0  0  0  0  0  0
   10.8681   -2.9400    0.0000 H   0  0  0  0  0  0  0  0  0  0  0  0
  1  8  1  0  0  0  0 
  1 10  1  0  0  0  0 
  2  7  1  0  0  0  0 
  2  9  1  0  0  0  0 
  3 16  1  0  0  0  0 
  3 32  1  0  0  0  0 
  4 15  1  0  0  0  0 
  4 31  1  0  0  0  0 
  5 17  1  0  0  0  0 
  5 33  1  0  0  0  0 
  6 18  1  0  0  0  0 
  6 34  1  0  0  0  0 
  7  8  1  0  0  0  0 
  7 21  1  0  0  0  0 
  7 22  1  0  0  0  0 
  8 23  1  0  0  0  0 
  8 24  1  0  0  0  0 
  9 11  2  0  0  0  0 
  9 14  1  0  0  0  0 
 10 12  2  0  0  0  0 
 10 13  1  0  0  0  0 
 11 15  1  0  0  0  0 
 11 25  1  0  0  0  0 
 12 16  1  0  0  0  0 
 12 26  1  0  0  0  0 
 13 19  2  0  0  0  0 
 13 28  1  0  0  0  0 
 14 20  2  0  0  0  0 
 14 27  1  0  0  0  0 
 15 17  2  0  0  0  0 
 16 18  2  0  0  0  0 
 17 20  1  0  0  0  0 
 18 19  1  0  0  0  0 
 19 30  1  0  0  0  0 
 20 29  1  0  0  0  0 
M  END
> <cdk:Title>
10356185

> <cdk:Remark>
null

> <PUBCHEM_COMPOUND_CID>
10356185

> <PUBCHEM_COMPOUND_CANONICALIZED>
1

> <PUBCHEM_CACTVS_COMPLEXITY>
259

> <PUBCHEM_CACTVS_HBOND_ACCEPTOR>
6

> <PUBCHEM_CACTVS_HBOND_DONOR>
4

> <PUBCHEM_CACTVS_ROTATABLE_BOND>
5

> <PUBCHEM_CACTVS_SUBSKEYS>
AAADccBwOAAAAAAAAAAAAAAAAAAAAAAAAAAwYAAAAAAAAAABQAAAGgAACAAACASgkAIwBoAABgCAACBCAAACCAAgIAAIiAAGiIgNJyKGMRqCeCGlwBULuAfAYAwAAQAACAAAQAACAAAQAACAAAAAAAAAAA==

> <PUBCHEM_IUPAC_OPENEYE_NAME>
4-[2-(3,4-dihydroxyphenoxy)ethoxy]benzene-1,2-diol

> <PUBCHEM_IUPAC_CAS_NAME>
4-[2-(3,4-dihydroxyphenoxy)ethoxy]benzene-1,2-diol

> <PUBCHEM_IUPAC_NAME>
4-[2-(3,4-dihydroxyphenoxy)ethoxy]benzene-1,2-diol

> <PUBCHEM_IUPAC_SYSTEMATIC_NAME>
4-[2-[3,4-bis(oxidanyl)phenoxy]ethoxy]benzene-1,2-diol

> <PUBCHEM_IUPAC_TRADITIONAL_NAME>
4-[2-(3,4-dihydroxyphenoxy)ethoxy]pyrocatechol

> <PUBCHEM_IUPAC_INCHI>
InChI=1S/C14H14O6/c15-11-3-1-9(7-13(11)17)19-5-6-20-10-2-4-12(16)14(18)8-10/h1-4,7-8,15-18H,5-6H2

> <PUBCHEM_IUPAC_INCHIKEY>
VCJGUFLLQPWAES-UHFFFAOYSA-N

> <PUBCHEM_XLOGP3_AA>
2.1

> <PUBCHEM_EXACT_MASS>
278.079038

> <PUBCHEM_MOLECULAR_FORMULA>
C14H14O6

> <PUBCHEM_MOLECULAR_WEIGHT>
278.25736

> <PUBCHEM_OPENEYE_CAN_SMILES>
C1=CC(=C(C=C1OCCOC2=CC(=C(C=C2)O)O)O)O

> <PUBCHEM_OPENEYE_ISO_SMILES>
C1=CC(=C(C=C1OCCOC2=CC(=C(C=C2)O)O)O)O

> <PUBCHEM_CACTVS_TPSA>
99.4

> <PUBCHEM_MONOISOTOPIC_WEIGHT>
278.079038

> <PUBCHEM_TOTAL_CHARGE>
0

> <PUBCHEM_HEAVY_ATOM_COUNT>
20

> <PUBCHEM_ATOM_DEF_STEREO_COUNT>
0

> <PUBCHEM_ATOM_UDEF_STEREO_COUNT>
0

> <PUBCHEM_BOND_DEF_STEREO_COUNT>
0

> <PUBCHEM_BOND_UDEF_STEREO_COUNT>
0

> <PUBCHEM_ISOTOPIC_ATOM_COUNT>
0

> <PUBCHEM_COMPONENT_COUNT>
1

> <PUBCHEM_CACTVS_TAUTO_COUNT>
21

> <PUBCHEM_COORDINATE_TYPE>
1

> <PUBCHEM_BONDANNOTATIONS>
10  12  8

$$$$
