23905966
  CDK     1223141344

 58 62  0  0  0  0  0  0  0  0999 V2000
    2.9176   -0.3494    0.0000 O   0  0  0  0  0  0  0  0  0  0  0  0
    6.3981    1.6160    0.0000 O   0  0  0  0  0  0  0  0  0  0  0  0
    4.6660    2.6160    0.0000 O   0  0  0  0  0  0  0  0  0  0  0  0
    5.5321   -1.8840    0.0000 N   0  0  0  0  0  0  0  0  0  0  0  0
    4.6660   -3.3840    0.0000 N   0  0  0  0  0  0  0  0  0  0  0  0
    6.4783   -1.5792    0.0000 N   0  0  0  0  0  0  0  0  0  0  0  0
    6.4783   -3.1887    0.0000 N   0  0  0  0  0  0  0  0  0  0  0  0
    4.6660   -1.3840    0.0000 C   0  0  3  0  0  0  0  0  0  0  0  0
    3.8000   -1.8840    0.0000 C   0  0  0  0  0  0  0  0  0  0  0  0
    3.8000   -2.8840    0.0000 C   0  0  0  0  0  0  0  0  0  0  0  0
    2.9061   -3.4186    0.0000 C   0  0  0  0  0  0  0  0  0  0  0  0
    2.0000   -2.9048    0.0000 C   0  0  0  0  0  0  0  0  0  0  0  0
    2.0000   -1.8632    0.0000 C   0  0  0  0  0  0  0  0  0  0  0  0
    2.9061   -1.3493    0.0000 C   0  0  0  0  0  0  0  0  0  0  0  0
    4.6660   -0.3840    0.0000 C   0  0  0  0  0  0  0  0  0  0  0  0
    5.5321   -2.8840    0.0000 C   0  0  0  0  0  0  0  0  0  0  0  0
    7.0619   -2.3840    0.0000 C   0  0  0  0  0  0  0  0  0  0  0  0
    5.5321    0.1160    0.0000 C   0  0  0  0  0  0  0  0  0  0  0  0
    3.8000    0.1160    0.0000 C   0  0  0  0  0  0  0  0  0  0  0  0
    8.0619   -2.3840    0.0000 C   0  0  0  0  0  0  0  0  0  0  0  0
    5.5321    1.1160    0.0000 C   0  0  0  0  0  0  0  0  0  0  0  0
    3.8000    1.1160    0.0000 C   0  0  0  0  0  0  0  0  0  0  0  0
    4.6660    1.6160    0.0000 C   0  0  0  0  0  0  0  0  0  0  0  0
    8.5619   -3.2500    0.0000 C   0  0  0  0  0  0  0  0  0  0  0  0
    8.5619   -1.5180    0.0000 C   0  0  0  0  0  0  0  0  0  0  0  0
    9.5619   -3.2500    0.0000 C   0  0  0  0  0  0  0  0  0  0  0  0
    9.5619   -1.5180    0.0000 C   0  0  0  0  0  0  0  0  0  0  0  0
   10.0619   -2.3840    0.0000 C   0  0  0  0  0  0  0  0  0  0  0  0
    3.8000    3.1160    0.0000 C   0  0  0  0  0  0  0  0  0  0  0  0
   10.0619   -4.1160    0.0000 C   0  0  0  0  0  0  0  0  0  0  0  0
    6.3981    2.6160    0.0000 C   0  0  0  0  0  0  0  0  0  0  0  0
    3.8000    4.1160    0.0000 C   0  0  0  0  0  0  0  0  0  0  0  0
    5.2030   -1.0740    0.0000 H   0  0  0  0  0  0  0  0  0  0  0  0
    2.5124   -3.8976    0.0000 H   0  0  0  0  0  0  0  0  0  0  0  0
    3.3107   -3.8884    0.0000 H   0  0  0  0  0  0  0  0  0  0  0  0
    1.3891   -2.7987    0.0000 H   0  0  0  0  0  0  0  0  0  0  0  0
    1.7909   -3.4885    0.0000 H   0  0  0  0  0  0  0  0  0  0  0  0
    1.7909   -1.2795    0.0000 H   0  0  0  0  0  0  0  0  0  0  0  0
    1.3891   -1.9692    0.0000 H   0  0  0  0  0  0  0  0  0  0  0  0
    6.6709   -0.9899    0.0000 H   0  0  0  0  0  0  0  0  0  0  0  0
    6.0690   -0.1940    0.0000 H   0  0  0  0  0  0  0  0  0  0  0  0
    3.2631   -0.1940    0.0000 H   0  0  0  0  0  0  0  0  0  0  0  0
    3.2631    1.4260    0.0000 H   0  0  0  0  0  0  0  0  0  0  0  0
    8.2519   -3.7869    0.0000 H   0  0  0  0  0  0  0  0  0  0  0  0
    8.2519   -0.9810    0.0000 H   0  0  0  0  0  0  0  0  0  0  0  0
    9.8719   -0.9810    0.0000 H   0  0  0  0  0  0  0  0  0  0  0  0
   10.6819   -2.3840    0.0000 H   0  0  0  0  0  0  0  0  0  0  0  0
    3.1894    3.2237    0.0000 H   0  0  0  0  0  0  0  0  0  0  0  0
    3.5880    2.5334    0.0000 H   0  0  0  0  0  0  0  0  0  0  0  0
    9.5250   -4.4260    0.0000 H   0  0  0  0  0  0  0  0  0  0  0  0
   10.3719   -4.6530    0.0000 H   0  0  0  0  0  0  0  0  0  0  0  0
   10.5988   -3.8060    0.0000 H   0  0  0  0  0  0  0  0  0  0  0  0
    7.0181    2.6160    0.0000 H   0  0  0  0  0  0  0  0  0  0  0  0
    6.3981    3.2360    0.0000 H   0  0  0  0  0  0  0  0  0  0  0  0
    5.7781    2.6160    0.0000 H   0  0  0  0  0  0  0  0  0  0  0  0
    4.4200    4.1160    0.0000 H   0  0  0  0  0  0  0  0  0  0  0  0
    3.8000    4.7360    0.0000 H   0  0  0  0  0  0  0  0  0  0  0  0
    3.1800    4.1160    0.0000 H   0  0  0  0  0  0  0  0  0  0  0  0
  1 14  2  0  0  0  0 
  2 21  1  0  0  0  0 
  2 31  1  0  0  0  0 
  3 23  1  0  0  0  0 
  3 29  1  0  0  0  0 
  4  6  1  0  0  0  0 
  4  8  1  0  0  0  0 
  4 16  1  0  0  0  0 
  5 10  1  0  0  0  0 
  5 16  2  0  0  0  0 
  6 17  1  0  0  0  0 
  6 40  1  0  0  0  0 
  7 16  1  0  0  0  0 
  7 17  2  0  0  0  0 
  8  9  1  0  0  0  0 
  8 15  1  0  0  0  0 
  8 33  1  0  0  0  0 
  9 10  2  0  0  0  0 
  9 14  1  0  0  0  0 
 10 11  1  0  0  0  0 
 11 12  1  0  0  0  0 
 11 34  1  0  0  0  0 
 11 35  1  0  0  0  0 
 12 13  1  0  0  0  0 
 12 36  1  0  0  0  0 
 12 37  1  0  0  0  0 
 13 14  1  0  0  0  0 
 13 38  1  0  0  0  0 
 13 39  1  0  0  0  0 
 15 18  2  0  0  0  0 
 15 19  1  0  0  0  0 
 17 20  1  0  0  0  0 
 18 21  1  0  0  0  0 
 18 41  1  0  0  0  0 
 19 22  2  0  0  0  0 
 19 42  1  0  0  0  0 
 20 24  1  0  0  0  0 
 20 25  2  0  0  0  0 
 21 23  2  0  0  0  0 
 22 23  1  0  0  0  0 
 22 43  1  0  0  0  0 
 24 26  2  0  0  0  0 
 24 44  1  0  0  0  0 
 25 27  1  0  0  0  0 
 25 45  1  0  0  0  0 
 26 28  1  0  0  0  0 
 26 30  1  0  0  0  0 
 27 28  2  0  0  0  0 
 27 46  1  0  0  0  0 
 28 47  1  0  0  0  0 
 29 32  1  0  0  0  0 
 29 48  1  0  0  0  0 
 29 49  1  0  0  0  0 
 30 50  1  0  0  0  0 
 30 51  1  0  0  0  0 
 30 52  1  0  0  0  0 
 31 53  1  0  0  0  0 
 31 54  1  0  0  0  0 
 31 55  1  0  0  0  0 
 32 56  1  0  0  0  0 
 32 57  1  0  0  0  0 
 32 58  1  0  0  0  0 
M  END
> <cdk:Title>
23905966

> <cdk:Remark>
null

> <PUBCHEM_COMPOUND_CID>
23905966

> <PUBCHEM_COMPOUND_CANONICALIZED>
1

> <PUBCHEM_CACTVS_COMPLEXITY>
835

> <PUBCHEM_CACTVS_HBOND_ACCEPTOR>
4

> <PUBCHEM_CACTVS_HBOND_DONOR>
1

> <PUBCHEM_CACTVS_ROTATABLE_BOND>
5

> <PUBCHEM_CACTVS_SUBSKEYS>
AAADceB7sAAAAAAAAAAAAAAAAAAAAQAAAAAwYIEAAAAAAECBQAAAHgAYAAAADCzhmAYzBoJiBACoAqZyZACCCAEgIAAdqAEujNiNJrqEuRuGOCrkwBMKqUe42fOOIAADAAAAQABAAAYAAACAAAAAAAAAAA==

> <PUBCHEM_IUPAC_OPENEYE_NAME>
9-(4-ethoxy-3-methoxy-phenyl)-2-(m-tolyl)-5,6,7,9-tetrahydro-1H-[1,2,4]triazolo[5,1-b]quinazolin-8-one

> <PUBCHEM_IUPAC_CAS_NAME>
9-(4-ethoxy-3-methoxyphenyl)-2-(3-methylphenyl)-5,6,7,9-tetrahydro-1H-[1,2,4]triazolo[5,1-b]quinazolin-8-one

> <PUBCHEM_IUPAC_NAME>
9-(4-ethoxy-3-methoxyphenyl)-2-(3-methylphenyl)-5,6,7,9-tetrahydro-1H-[1,2,4]triazolo[5,1-b]quinazolin-8-one

> <PUBCHEM_IUPAC_SYSTEMATIC_NAME>
9-(4-ethoxy-3-methoxy-phenyl)-2-(3-methylphenyl)-5,6,7,9-tetrahydro-1H-[1,2,4]triazolo[5,1-b]quinazolin-8-one

> <PUBCHEM_IUPAC_TRADITIONAL_NAME>
9-(4-ethoxy-3-methoxy-phenyl)-2-(m-tolyl)-5,6,7,9-tetrahydro-1H-[1,2,4]triazolo[5,1-b]quinazolin-8-one

> <PUBCHEM_IUPAC_INCHI>
InChI=1S/C25H26N4O3/c1-4-32-20-12-11-16(14-21(20)31-3)23-22-18(9-6-10-19(22)30)26-25-27-24(28-29(23)25)17-8-5-7-15(2)13-17/h5,7-8,11-14,23H,4,6,9-10H2,1-3H3,(H,26,27,28)

> <PUBCHEM_IUPAC_INCHIKEY>
OJLLOVWGNHSWEF-UHFFFAOYSA-N

> <PUBCHEM_XLOGP3_AA>
3.3

> <PUBCHEM_EXACT_MASS>
430.200491

> <PUBCHEM_MOLECULAR_FORMULA>
C25H26N4O3

> <PUBCHEM_MOLECULAR_WEIGHT>
430.49894

> <PUBCHEM_OPENEYE_CAN_SMILES>
CCOC1=C(C=C(C=C1)C2C3=C(CCCC3=O)N=C4N2NC(=N4)C5=CC(=CC=C5)C)OC

> <PUBCHEM_OPENEYE_ISO_SMILES>
CCOC1=C(C=C(C=C1)C2C3=C(CCCC3=O)N=C4N2NC(=N4)C5=CC(=CC=C5)C)OC

> <PUBCHEM_CACTVS_TPSA>
75.5

> <PUBCHEM_MONOISOTOPIC_WEIGHT>
430.200491

> <PUBCHEM_TOTAL_CHARGE>
0

> <PUBCHEM_HEAVY_ATOM_COUNT>
32

> <PUBCHEM_ATOM_DEF_STEREO_COUNT>
0

> <PUBCHEM_ATOM_UDEF_STEREO_COUNT>
1

> <PUBCHEM_BOND_DEF_STEREO_COUNT>
0

> <PUBCHEM_BOND_UDEF_STEREO_COUNT>
0

> <PUBCHEM_ISOTOPIC_ATOM_COUNT>
0

> <PUBCHEM_COMPONENT_COUNT>
1

> <PUBCHEM_CACTVS_TAUTO_COUNT>
18

> <PUBCHEM_COORDINATE_TYPE>
1

> <PUBCHEM_BONDANNOTATIONS>
15  18  8

$$$$
