32830389
  CDK     1223141344

 42 44  0  0  0  0  0  0  0  0999 V2000
    2.0000    2.3961    0.0000 Cl  0  0  0  0  0  0  0  0  0  0  0  0
    9.2765    2.3132    0.0000 S   0  0  0  0  0  0  0  0  0  0  0  0
    3.4945    1.4255    0.0000 S   0  0  0  0  0  0  0  0  0  0  0  0
    6.7021   -0.3740    0.0000 O   0  0  0  0  0  0  0  0  0  0  0  0
    9.5553    0.5531    0.0000 N   0  0  0  0  0  0  0  0  0  0  0  0
   10.8643    1.5042    0.0000 N   0  0  0  0  0  0  0  0  0  0  0  0
   11.1733    0.5531    0.0000 N   0  0  0  0  0  0  0  0  0  0  0  0
    6.1669    1.2733    0.0000 N   0  0  0  0  0  0  0  0  0  0  0  0
    8.6042    0.2441    0.0000 C   0  0  0  0  0  0  0  0  0  0  0  0
    7.8611    0.9132    0.0000 C   0  0  0  0  0  0  0  0  0  0  0  0
   10.3643   -0.0347    0.0000 C   0  0  0  0  0  0  0  0  0  0  0  0
   10.3643   -1.0347    0.0000 C   0  0  0  0  0  0  0  0  0  0  0  0
    9.8643    1.5042    0.0000 C   0  0  0  0  0  0  0  0  0  0  0  0
    6.9100    0.6042    0.0000 C   0  0  0  0  0  0  0  0  0  0  0  0
    9.4983   -1.5347    0.0000 C   0  0  0  0  0  0  0  0  0  0  0  0
   11.2303   -1.5347    0.0000 C   0  0  0  0  0  0  0  0  0  0  0  0
    5.2158    0.9643    0.0000 C   0  0  0  0  0  0  0  0  0  0  0  0
    9.4983   -2.5347    0.0000 C   0  0  0  0  0  0  0  0  0  0  0  0
   11.2303   -2.5347    0.0000 C   0  0  0  0  0  0  0  0  0  0  0  0
   10.3643   -3.0347    0.0000 C   0  0  0  0  0  0  0  0  0  0  0  0
    4.4727    1.6334    0.0000 C   0  0  0  0  0  0  0  0  0  0  0  0
    8.6322   -3.0347    0.0000 C   0  0  0  0  0  0  0  0  0  0  0  0
    4.5772    2.6280    0.0000 C   0  0  0  0  0  0  0  0  0  0  0  0
    3.6637    3.0347    0.0000 C   0  0  0  0  0  0  0  0  0  0  0  0
    2.9945    2.2916    0.0000 C   0  0  0  0  0  0  0  0  0  0  0  0
    8.1157   -0.1376    0.0000 H   0  0  0  0  0  0  0  0  0  0  0  0
    8.8953   -0.3034    0.0000 H   0  0  0  0  0  0  0  0  0  0  0  0
    8.3496    1.2949    0.0000 H   0  0  0  0  0  0  0  0  0  0  0  0
    7.5700    1.4606    0.0000 H   0  0  0  0  0  0  0  0  0  0  0  0
    8.9613   -1.2247    0.0000 H   0  0  0  0  0  0  0  0  0  0  0  0
   11.2287    2.0057    0.0000 H   0  0  0  0  0  0  0  0  0  0  0  0
   11.7673   -1.2247    0.0000 H   0  0  0  0  0  0  0  0  0  0  0  0
    6.2958    1.8798    0.0000 H   0  0  0  0  0  0  0  0  0  0  0  0
    4.7273    0.5826    0.0000 H   0  0  0  0  0  0  0  0  0  0  0  0
    5.5069    0.4169    0.0000 H   0  0  0  0  0  0  0  0  0  0  0  0
   11.7673   -2.8447    0.0000 H   0  0  0  0  0  0  0  0  0  0  0  0
   10.3643   -3.6547    0.0000 H   0  0  0  0  0  0  0  0  0  0  0  0
    8.3222   -2.4978    0.0000 H   0  0  0  0  0  0  0  0  0  0  0  0
    8.0953   -3.3447    0.0000 H   0  0  0  0  0  0  0  0  0  0  0  0
    8.9422   -3.5716    0.0000 H   0  0  0  0  0  0  0  0  0  0  0  0
    5.1141    2.9380    0.0000 H   0  0  0  0  0  0  0  0  0  0  0  0
    3.5348    3.6411    0.0000 H   0  0  0  0  0  0  0  0  0  0  0  0
  1 25  1  0  0  0  0 
  2 13  2  0  0  0  0 
  3 21  1  0  0  0  0 
  3 25  1  0  0  0  0 
  4 14  2  0  0  0  0 
  5  9  1  0  0  0  0 
  5 11  1  0  0  0  0 
  5 13  1  0  0  0  0 
  6  7  1  0  0  0  0 
  6 13  1  0  0  0  0 
  6 31  1  0  0  0  0 
  7 11  2  0  0  0  0 
  8 14  1  0  0  0  0 
  8 17  1  0  0  0  0 
  8 33  1  0  0  0  0 
  9 10  1  0  0  0  0 
  9 26  1  0  0  0  0 
  9 27  1  0  0  0  0 
 10 14  1  0  0  0  0 
 10 28  1  0  0  0  0 
 10 29  1  0  0  0  0 
 11 12  1  0  0  0  0 
 12 15  1  0  0  0  0 
 12 16  2  0  0  0  0 
 15 18  2  0  0  0  0 
 15 30  1  0  0  0  0 
 16 19  1  0  0  0  0 
 16 32  1  0  0  0  0 
 17 21  1  0  0  0  0 
 17 34  1  0  0  0  0 
 17 35  1  0  0  0  0 
 18 20  1  0  0  0  0 
 18 22  1  0  0  0  0 
 19 20  2  0  0  0  0 
 19 36  1  0  0  0  0 
 20 37  1  0  0  0  0 
 21 23  2  0  0  0  0 
 22 38  1  0  0  0  0 
 22 39  1  0  0  0  0 
 22 40  1  0  0  0  0 
 23 24  1  0  0  0  0 
 23 41  1  0  0  0  0 
 24 25  2  0  0  0  0 
 24 42  1  0  0  0  0 
M  END
> <cdk:Title>
32830389

> <cdk:Remark>
null

> <PUBCHEM_COMPOUND_CID>
32830389

> <PUBCHEM_COMPOUND_CANONICALIZED>
1

> <PUBCHEM_CACTVS_COMPLEXITY>
545

> <PUBCHEM_CACTVS_HBOND_ACCEPTOR>
4

> <PUBCHEM_CACTVS_HBOND_DONOR>
2

> <PUBCHEM_CACTVS_ROTATABLE_BOND>
6

> <PUBCHEM_CACTVS_SUBSKEYS>
AAADceB7oABkAAAAAAAAAAAAAAAAASIAAAAwAAAAAAAAAAABwAAAHgYYAAAADALB2CQzAYPiAAisAiNyMACTAIAgDRlNiJkoBpiIIKqh2xGEIAhgngKoiAcQgEAOAAACAAAAAAAAAAQAAAAAAAAAAAAAAA==

> <PUBCHEM_IUPAC_OPENEYE_NAME>
N-[(5-chloro-2-thienyl)methyl]-3-[3-(m-tolyl)-5-thioxo-1H-1,2,4-triazol-4-yl]propanamide

> <PUBCHEM_IUPAC_CAS_NAME>
N-[(5-chloro-2-thiophenyl)methyl]-3-[3-(3-methylphenyl)-5-sulfanylidene-1H-1,2,4-triazol-4-yl]propanamide

> <PUBCHEM_IUPAC_NAME>
N-[(5-chlorothiophen-2-yl)methyl]-3-[3-(3-methylphenyl)-5-sulfanylidene-1H-1,2,4-triazol-4-yl]propanamide

> <PUBCHEM_IUPAC_SYSTEMATIC_NAME>
N-[(5-chloranylthiophen-2-yl)methyl]-3-[3-(3-methylphenyl)-5-sulfanylidene-1H-1,2,4-triazol-4-yl]propanamide

> <PUBCHEM_IUPAC_TRADITIONAL_NAME>
N-[(5-chloro-2-thienyl)methyl]-3-[3-(m-tolyl)-5-thioxo-1H-1,2,4-triazol-4-yl]propionamide

> <PUBCHEM_IUPAC_INCHI>
InChI=1S/C17H17ClN4OS2/c1-11-3-2-4-12(9-11)16-20-21-17(24)22(16)8-7-15(23)19-10-13-5-6-14(18)25-13/h2-6,9H,7-8,10H2,1H3,(H,19,23)(H,21,24)

> <PUBCHEM_IUPAC_INCHIKEY>
NWUHMLGPGOEZFS-UHFFFAOYSA-N

> <PUBCHEM_XLOGP3_AA>
3.4

> <PUBCHEM_EXACT_MASS>
392.053231

> <PUBCHEM_MOLECULAR_FORMULA>
C17H17ClN4OS2

> <PUBCHEM_MOLECULAR_WEIGHT>
392.92608

> <PUBCHEM_OPENEYE_CAN_SMILES>
CC1=CC=CC(=C1)C2=NNC(=S)N2CCC(=O)NCC3=CC=C(S3)Cl

> <PUBCHEM_OPENEYE_ISO_SMILES>
CC1=CC=CC(=C1)C2=NNC(=S)N2CCC(=O)NCC3=CC=C(S3)Cl

> <PUBCHEM_CACTVS_TPSA>
117

> <PUBCHEM_MONOISOTOPIC_WEIGHT>
392.053231

> <PUBCHEM_TOTAL_CHARGE>
0

> <PUBCHEM_HEAVY_ATOM_COUNT>
25

> <PUBCHEM_ATOM_DEF_STEREO_COUNT>
0

> <PUBCHEM_ATOM_UDEF_STEREO_COUNT>
0

> <PUBCHEM_BOND_DEF_STEREO_COUNT>
0

> <PUBCHEM_BOND_UDEF_STEREO_COUNT>
0

> <PUBCHEM_ISOTOPIC_ATOM_COUNT>
0

> <PUBCHEM_COMPONENT_COUNT>
1

> <PUBCHEM_CACTVS_TAUTO_COUNT>
4

> <PUBCHEM_COORDINATE_TYPE>
1

> <PUBCHEM_BONDANNOTATIONS>
12  15  8

$$$$
