33221389
  CDK     1223141344

 50 52  0  0  0  0  0  0  0  0999 V2000
    3.7320   -1.0670    0.0000 S   0  0  0  0  0  0  0  0  0  0  0  0
    3.2320   -0.2010    0.0000 O   0  0  0  0  0  0  0  0  0  0  0  0
    4.2320   -1.9330    0.0000 O   0  0  0  0  0  0  0  0  0  0  0  0
    8.0622   -0.5670    0.0000 O   0  0  0  0  0  0  0  0  0  0  0  0
   14.2045    0.7377    0.0000 O   0  0  0  0  0  0  0  0  0  0  0  0
   14.2045   -0.8717    0.0000 O   0  0  0  0  0  0  0  0  0  0  0  0
   10.6603    1.9330    0.0000 O   0  0  0  0  0  0  0  0  0  0  0  0
    4.5981   -0.5670    0.0000 N   0  0  0  0  0  0  0  0  0  0  0  0
    7.1962    0.9330    0.0000 N   0  0  0  0  0  0  0  0  0  0  0  0
    9.7942    0.4330    0.0000 N   0  0  0  0  0  0  0  0  0  0  0  0
    6.3301    0.4330    0.0000 C   0  0  0  0  0  0  0  0  0  0  0  0
    6.3301   -0.5670    0.0000 C   0  0  0  0  0  0  0  0  0  0  0  0
    5.4641    0.9330    0.0000 C   0  0  0  0  0  0  0  0  0  0  0  0
    5.4641   -1.0670    0.0000 C   0  0  0  0  0  0  0  0  0  0  0  0
    4.5981    0.4330    0.0000 C   0  0  0  0  0  0  0  0  0  0  0  0
    2.8660   -1.5670    0.0000 C   0  0  0  0  0  0  0  0  0  0  0  0
    8.0622    0.4330    0.0000 C   0  0  0  0  0  0  0  0  0  0  0  0
    2.0000   -1.0670    0.0000 C   0  0  0  0  0  0  0  0  0  0  0  0
    8.9282    0.9330    0.0000 C   0  0  0  0  0  0  0  0  0  0  0  0
   10.6603    0.9330    0.0000 C   0  0  0  0  0  0  0  0  0  0  0  0
   11.5263    0.4330    0.0000 C   0  0  0  0  0  0  0  0  0  0  0  0
   12.3923    0.9330    0.0000 C   0  0  0  0  0  0  0  0  0  0  0  0
   13.2583    0.4330    0.0000 C   0  0  0  0  0  0  0  0  0  0  0  0
   13.2583   -0.5670    0.0000 C   0  0  0  0  0  0  0  0  0  0  0  0
   11.5263   -0.5670    0.0000 C   0  0  0  0  0  0  0  0  0  0  0  0
   12.3923   -1.0670    0.0000 C   0  0  0  0  0  0  0  0  0  0  0  0
   14.7882   -0.0670    0.0000 C   0  0  0  0  0  0  0  0  0  0  0  0
    6.8671    0.1230    0.0000 H   0  0  0  0  0  0  0  0  0  0  0  0
    5.8626    1.4080    0.0000 H   0  0  0  0  0  0  0  0  0  0  0  0
    6.5422   -1.1496    0.0000 H   0  0  0  0  0  0  0  0  0  0  0  0
    6.9407   -0.4593    0.0000 H   0  0  0  0  0  0  0  0  0  0  0  0
    5.0656    1.4080    0.0000 H   0  0  0  0  0  0  0  0  0  0  0  0
    4.3860    1.0156    0.0000 H   0  0  0  0  0  0  0  0  0  0  0  0
    3.9875    0.3254    0.0000 H   0  0  0  0  0  0  0  0  0  0  0  0
    5.0656   -1.5419    0.0000 H   0  0  0  0  0  0  0  0  0  0  0  0
    5.8626   -1.5419    0.0000 H   0  0  0  0  0  0  0  0  0  0  0  0
    7.1962    1.5530    0.0000 H   0  0  0  0  0  0  0  0  0  0  0  0
    2.4675   -2.0419    0.0000 H   0  0  0  0  0  0  0  0  0  0  0  0
    3.2646   -2.0419    0.0000 H   0  0  0  0  0  0  0  0  0  0  0  0
    2.3100   -0.5301    0.0000 H   0  0  0  0  0  0  0  0  0  0  0  0
    1.4631   -0.7570    0.0000 H   0  0  0  0  0  0  0  0  0  0  0  0
    1.6900   -1.6039    0.0000 H   0  0  0  0  0  0  0  0  0  0  0  0
    9.3267    1.4080    0.0000 H   0  0  0  0  0  0  0  0  0  0  0  0
    8.5297    1.4080    0.0000 H   0  0  0  0  0  0  0  0  0  0  0  0
    9.7942   -0.1870    0.0000 H   0  0  0  0  0  0  0  0  0  0  0  0
   12.3923    1.5530    0.0000 H   0  0  0  0  0  0  0  0  0  0  0  0
   10.9893   -0.8770    0.0000 H   0  0  0  0  0  0  0  0  0  0  0  0
   12.3923   -1.6870    0.0000 H   0  0  0  0  0  0  0  0  0  0  0  0
   15.2490   -0.4817    0.0000 H   0  0  0  0  0  0  0  0  0  0  0  0
   15.2490    0.3477    0.0000 H   0  0  0  0  0  0  0  0  0  0  0  0
  1  2  2  0  0  0  0 
  1  3  2  0  0  0  0 
  1  8  1  0  0  0  0 
  1 16  1  0  0  0  0 
  4 17  2  0  0  0  0 
  5 23  1  0  0  0  0 
  5 27  1  0  0  0  0 
  6 24  1  0  0  0  0 
  6 27  1  0  0  0  0 
  7 20  2  0  0  0  0 
  8 14  1  0  0  0  0 
  8 15  1  0  0  0  0 
  9 11  1  0  0  0  0 
  9 17  1  0  0  0  0 
  9 37  1  0  0  0  0 
 10 19  1  0  0  0  0 
 10 20  1  0  0  0  0 
 10 45  1  0  0  0  0 
 11 12  1  0  0  0  0 
 11 13  1  0  0  0  0 
 11 28  1  0  0  0  0 
 12 14  1  0  0  0  0 
 12 30  1  0  0  0  0 
 12 31  1  0  0  0  0 
 13 15  1  0  0  0  0 
 13 29  1  0  0  0  0 
 13 32  1  0  0  0  0 
 14 35  1  0  0  0  0 
 14 36  1  0  0  0  0 
 15 33  1  0  0  0  0 
 15 34  1  0  0  0  0 
 16 18  1  0  0  0  0 
 16 38  1  0  0  0  0 
 16 39  1  0  0  0  0 
 17 19  1  0  0  0  0 
 18 40  1  0  0  0  0 
 18 41  1  0  0  0  0 
 18 42  1  0  0  0  0 
 19 43  1  0  0  0  0 
 19 44  1  0  0  0  0 
 20 21  1  0  0  0  0 
 21 22  2  0  0  0  0 
 21 25  1  0  0  0  0 
 22 23  1  0  0  0  0 
 22 46  1  0  0  0  0 
 23 24  2  0  0  0  0 
 24 26  1  0  0  0  0 
 25 26  2  0  0  0  0 
 25 47  1  0  0  0  0 
 26 48  1  0  0  0  0 
 27 49  1  0  0  0  0 
 27 50  1  0  0  0  0 
M  END
> <cdk:Title>
33221389

> <cdk:Remark>
null

> <PUBCHEM_COMPOUND_CID>
33221389

> <PUBCHEM_COMPOUND_CANONICALIZED>
1

> <PUBCHEM_CACTVS_COMPLEXITY>
642

> <PUBCHEM_CACTVS_HBOND_ACCEPTOR>
7

> <PUBCHEM_CACTVS_HBOND_DONOR>
2

> <PUBCHEM_CACTVS_ROTATABLE_BOND>
6

> <PUBCHEM_CACTVS_SUBSKEYS>
AAADceB7OABAAAAAAAAAAAAAAAAAASAAAAA8QAAAAAAAAEgBAAAAHgQQQAAADCzF2AeyDoLABAKIAiFSEHDCCAAkIAAIiIGOjMgdZjKE9Tu0MSpk1hGOqYe63BLOIAABAAAAQABAAAIAAACAAAAAAAAAAA==

> <PUBCHEM_IUPAC_OPENEYE_NAME>
N-[2-[(1-ethylsulfonyl-4-piperidyl)amino]-2-oxo-ethyl]-1,3-benzodioxole-5-carboxamide

> <PUBCHEM_IUPAC_CAS_NAME>
N-[2-[(1-ethylsulfonyl-4-piperidinyl)amino]-2-oxoethyl]-1,3-benzodioxole-5-carboxamide

> <PUBCHEM_IUPAC_NAME>
N-[2-[(1-ethylsulfonylpiperidin-4-yl)amino]-2-oxoethyl]-1,3-benzodioxole-5-carboxamide

> <PUBCHEM_IUPAC_SYSTEMATIC_NAME>
N-[2-[(1-ethylsulfonylpiperidin-4-yl)amino]-2-oxidanylidene-ethyl]-1,3-benzodioxole-5-carboxamide

> <PUBCHEM_IUPAC_TRADITIONAL_NAME>
N-[2-[(1-esyl-4-piperidyl)amino]-2-keto-ethyl]-piperonylamide

> <PUBCHEM_IUPAC_INCHI>
InChI=1S/C17H23N3O6S/c1-2-27(23,24)20-7-5-13(6-8-20)19-16(21)10-18-17(22)12-3-4-14-15(9-12)26-11-25-14/h3-4,9,13H,2,5-8,10-11H2,1H3,(H,18,22)(H,19,21)

> <PUBCHEM_IUPAC_INCHIKEY>
DJKFJYZWYNDKOQ-UHFFFAOYSA-N

> <PUBCHEM_XLOGP3_AA>
0.6

> <PUBCHEM_EXACT_MASS>
397.130756

> <PUBCHEM_MOLECULAR_FORMULA>
C17H23N3O6S

> <PUBCHEM_MOLECULAR_WEIGHT>
397.44602

> <PUBCHEM_OPENEYE_CAN_SMILES>
CCS(=O)(=O)N1CCC(CC1)NC(=O)CNC(=O)C2=CC3=C(C=C2)OCO3

> <PUBCHEM_OPENEYE_ISO_SMILES>
CCS(=O)(=O)N1CCC(CC1)NC(=O)CNC(=O)C2=CC3=C(C=C2)OCO3

> <PUBCHEM_CACTVS_TPSA>
122

> <PUBCHEM_MONOISOTOPIC_WEIGHT>
397.130756

> <PUBCHEM_TOTAL_CHARGE>
0

> <PUBCHEM_HEAVY_ATOM_COUNT>
27

> <PUBCHEM_ATOM_DEF_STEREO_COUNT>
0

> <PUBCHEM_ATOM_UDEF_STEREO_COUNT>
0

> <PUBCHEM_BOND_DEF_STEREO_COUNT>
0

> <PUBCHEM_BOND_UDEF_STEREO_COUNT>
0

> <PUBCHEM_ISOTOPIC_ATOM_COUNT>
0

> <PUBCHEM_COMPONENT_COUNT>
1

> <PUBCHEM_CACTVS_TAUTO_COUNT>
4

> <PUBCHEM_COORDINATE_TYPE>
1

> <PUBCHEM_BONDANNOTATIONS>
21  22  8

$$$$
