49419686
  CDK     1223141344

 49 51  0  0  0  0  0  0  0  0999 V2000
    6.3301    1.4050    0.0000 S   0  0  0  0  0  0  0  0  0  0  0  0
    4.5981   -4.5950    0.0000 O   0  0  0  0  0  0  0  0  0  0  0  0
    3.7320   -1.0950    0.0000 O   0  0  0  0  0  0  0  0  0  0  0  0
    2.0000   -4.0950    0.0000 O   0  0  0  0  0  0  0  0  0  0  0  0
    7.3301    1.4050    0.0000 O   0  0  0  0  0  0  0  0  0  0  0  0
    5.3301    1.4050    0.0000 O   0  0  0  0  0  0  0  0  0  0  0  0
    4.5981   -2.5950    0.0000 N   0  0  0  0  0  0  0  0  0  0  0  0
    6.3301    2.4050    0.0000 N   0  0  0  0  0  0  0  0  0  0  0  0
    2.8660   -5.5950    0.0000 N   0  0  0  0  0  0  0  0  0  0  0  0
    3.7320   -3.0950    0.0000 C   0  0  0  0  0  0  0  0  0  0  0  0
    3.7320   -4.0950    0.0000 C   0  0  3  0  0  0  0  0  0  0  0  0
    5.4641   -3.0950    0.0000 C   0  0  0  0  0  0  0  0  0  0  0  0
    5.4641   -4.0950    0.0000 C   0  0  0  0  0  0  0  0  0  0  0  0
    4.5981   -1.5950    0.0000 C   0  0  0  0  0  0  0  0  0  0  0  0
    5.4641   -1.0950    0.0000 C   0  0  0  0  0  0  0  0  0  0  0  0
    2.8660   -4.5950    0.0000 C   0  0  0  0  0  0  0  0  0  0  0  0
    6.3301    0.4050    0.0000 C   0  0  0  0  0  0  0  0  0  0  0  0
    5.4641   -0.0950    0.0000 C   0  0  0  0  0  0  0  0  0  0  0  0
    6.3301   -1.5950    0.0000 C   0  0  0  0  0  0  0  0  0  0  0  0
    7.1962   -0.0950    0.0000 C   0  0  0  0  0  0  0  0  0  0  0  0
    7.1962   -1.0950    0.0000 C   0  0  0  0  0  0  0  0  0  0  0  0
    7.1962    2.9050    0.0000 C   0  0  0  0  0  0  0  0  0  0  0  0
    7.1962    3.9050    0.0000 C   0  0  0  0  0  0  0  0  0  0  0  0
    8.0622    4.4050    0.0000 C   0  0  0  0  0  0  0  0  0  0  0  0
    6.3301    4.4050    0.0000 C   0  0  0  0  0  0  0  0  0  0  0  0
    8.0622    5.4050    0.0000 C   0  0  0  0  0  0  0  0  0  0  0  0
    6.3301    5.4050    0.0000 C   0  0  0  0  0  0  0  0  0  0  0  0
    7.1962    5.9050    0.0000 C   0  0  0  0  0  0  0  0  0  0  0  0
    3.5200   -2.5124    0.0000 H   0  0  0  0  0  0  0  0  0  0  0  0
    3.1215   -3.2027    0.0000 H   0  0  0  0  0  0  0  0  0  0  0  0
    3.7320   -4.7150    0.0000 H   0  0  0  0  0  0  0  0  0  0  0  0
    6.0747   -3.2027    0.0000 H   0  0  0  0  0  0  0  0  0  0  0  0
    5.6762   -2.5124    0.0000 H   0  0  0  0  0  0  0  0  0  0  0  0
    5.6762   -4.6776    0.0000 H   0  0  0  0  0  0  0  0  0  0  0  0
    6.0747   -3.9873    0.0000 H   0  0  0  0  0  0  0  0  0  0  0  0
    4.9272    0.2150    0.0000 H   0  0  0  0  0  0  0  0  0  0  0  0
    6.3301   -2.2150    0.0000 H   0  0  0  0  0  0  0  0  0  0  0  0
    7.7331    0.2150    0.0000 H   0  0  0  0  0  0  0  0  0  0  0  0
    5.7932    2.7150    0.0000 H   0  0  0  0  0  0  0  0  0  0  0  0
    7.7331   -1.4050    0.0000 H   0  0  0  0  0  0  0  0  0  0  0  0
    7.4082    2.3224    0.0000 H   0  0  0  0  0  0  0  0  0  0  0  0
    7.8067    3.0127    0.0000 H   0  0  0  0  0  0  0  0  0  0  0  0
    2.3291   -5.9050    0.0000 H   0  0  0  0  0  0  0  0  0  0  0  0
    3.4030   -5.9050    0.0000 H   0  0  0  0  0  0  0  0  0  0  0  0
    8.5991    4.0950    0.0000 H   0  0  0  0  0  0  0  0  0  0  0  0
    5.7932    4.0950    0.0000 H   0  0  0  0  0  0  0  0  0  0  0  0
    8.5991    5.7150    0.0000 H   0  0  0  0  0  0  0  0  0  0  0  0
    5.7932    5.7150    0.0000 H   0  0  0  0  0  0  0  0  0  0  0  0
    7.1962    6.5250    0.0000 H   0  0  0  0  0  0  0  0  0  0  0  0
  1  5  2  0  0  0  0 
  1  6  2  0  0  0  0 
  1  8  1  0  0  0  0 
  1 17  1  0  0  0  0 
  2 11  1  0  0  0  0 
  2 13  1  0  0  0  0 
  3 14  2  0  0  0  0 
  4 16  2  0  0  0  0 
  7 10  1  0  0  0  0 
  7 12  1  0  0  0  0 
  7 14  1  0  0  0  0 
  8 22  1  0  0  0  0 
  8 39  1  0  0  0  0 
  9 16  1  0  0  0  0 
  9 43  1  0  0  0  0 
  9 44  1  0  0  0  0 
 10 11  1  0  0  0  0 
 10 29  1  0  0  0  0 
 10 30  1  0  0  0  0 
 11 16  1  0  0  0  0 
 11 31  1  0  0  0  0 
 12 13  1  0  0  0  0 
 12 32  1  0  0  0  0 
 12 33  1  0  0  0  0 
 13 34  1  0  0  0  0 
 13 35  1  0  0  0  0 
 14 15  1  0  0  0  0 
 15 18  2  0  0  0  0 
 15 19  1  0  0  0  0 
 17 18  1  0  0  0  0 
 17 20  2  0  0  0  0 
 18 36  1  0  0  0  0 
 19 21  2  0  0  0  0 
 19 37  1  0  0  0  0 
 20 21  1  0  0  0  0 
 20 38  1  0  0  0  0 
 21 40  1  0  0  0  0 
 22 23  1  0  0  0  0 
 22 41  1  0  0  0  0 
 22 42  1  0  0  0  0 
 23 24  2  0  0  0  0 
 23 25  1  0  0  0  0 
 24 26  1  0  0  0  0 
 24 45  1  0  0  0  0 
 25 27  2  0  0  0  0 
 25 46  1  0  0  0  0 
 26 28  2  0  0  0  0 
 26 47  1  0  0  0  0 
 27 28  1  0  0  0  0 
 27 48  1  0  0  0  0 
 28 49  1  0  0  0  0 
M  END
> <cdk:Title>
49419686

> <cdk:Remark>
null

> <PUBCHEM_COMPOUND_CID>
49419686

> <PUBCHEM_COMPOUND_CANONICALIZED>
1

> <PUBCHEM_CACTVS_COMPLEXITY>
657

> <PUBCHEM_CACTVS_HBOND_ACCEPTOR>
6

> <PUBCHEM_CACTVS_HBOND_DONOR>
2

> <PUBCHEM_CACTVS_ROTATABLE_BOND>
6

> <PUBCHEM_CACTVS_SUBSKEYS>
AAADceB7OABAAAAAAAAAAAAAAAAAAAAAAAA8YIAAAAAAAAABQAAAHgQQQAAADBTh2AYwAYNABAKIAiFSEHLCABAkAAAIiJlIBMgKIDqA1RWHIQhglgCYiYcYiACOAAAAgAAAAAAAAAEAAAAAAAAAAAAAAA==

> <PUBCHEM_IUPAC_OPENEYE_NAME>
4-[3-(benzylsulfamoyl)benzoyl]morpholine-2-carboxamide

> <PUBCHEM_IUPAC_CAS_NAME>
4-[oxo-[3-[(phenylmethyl)sulfamoyl]phenyl]methyl]-2-morpholinecarboxamide

> <PUBCHEM_IUPAC_NAME>
4-[3-(benzylsulfamoyl)benzoyl]morpholine-2-carboxamide

> <PUBCHEM_IUPAC_SYSTEMATIC_NAME>
4-[3-[(phenylmethyl)sulfamoyl]phenyl]carbonylmorpholine-2-carboxamide

> <PUBCHEM_IUPAC_TRADITIONAL_NAME>
4-[3-(benzylsulfamoyl)benzoyl]morpholine-2-carboxamide

> <PUBCHEM_IUPAC_INCHI>
InChI=1S/C19H21N3O5S/c20-18(23)17-13-22(9-10-27-17)19(24)15-7-4-8-16(11-15)28(25,26)21-12-14-5-2-1-3-6-14/h1-8,11,17,21H,9-10,12-13H2,(H2,20,23)

> <PUBCHEM_IUPAC_INCHIKEY>
ULZUUPAWNBWBJN-UHFFFAOYSA-N

> <PUBCHEM_XLOGP3_AA>
0.4

> <PUBCHEM_EXACT_MASS>
403.120192

> <PUBCHEM_MOLECULAR_FORMULA>
C19H21N3O5S

> <PUBCHEM_MOLECULAR_WEIGHT>
403.45214

> <PUBCHEM_OPENEYE_CAN_SMILES>
C1COC(CN1C(=O)C2=CC(=CC=C2)S(=O)(=O)NCC3=CC=CC=C3)C(=O)N

> <PUBCHEM_OPENEYE_ISO_SMILES>
C1COC(CN1C(=O)C2=CC(=CC=C2)S(=O)(=O)NCC3=CC=CC=C3)C(=O)N

> <PUBCHEM_CACTVS_TPSA>
127

> <PUBCHEM_MONOISOTOPIC_WEIGHT>
403.120192

> <PUBCHEM_TOTAL_CHARGE>
0

> <PUBCHEM_HEAVY_ATOM_COUNT>
28

> <PUBCHEM_ATOM_DEF_STEREO_COUNT>
0

> <PUBCHEM_ATOM_UDEF_STEREO_COUNT>
1

> <PUBCHEM_BOND_DEF_STEREO_COUNT>
0

> <PUBCHEM_BOND_UDEF_STEREO_COUNT>
0

> <PUBCHEM_ISOTOPIC_ATOM_COUNT>
0

> <PUBCHEM_COMPONENT_COUNT>
1

> <PUBCHEM_CACTVS_TAUTO_COUNT>
3

> <PUBCHEM_COORDINATE_TYPE>
1

> <PUBCHEM_BONDANNOTATIONS>
11  16  3

$$$$
