
  CDK     0202151413

 17 17  0  0  0  0  0  0  0  0999 V2000
    6.2853    0.9154    0.0000 O   0  0  0  0  0  0  0  0  0  0  0  0
    5.3147    1.4209    0.0000 O   0  0  0  0  0  0  0  0  0  0  0  0
    3.5827    1.4209    0.0000 N   0  0  0  0  0  0  0  0  0  0  0  0
    4.4487   -0.0791    0.0000 N   0  0  0  0  0  0  0  0  0  0  0  0
    4.1168    4.0791    0.0000 N   0  0  0  0  0  0  0  0  0  0  0  0
    3.4782    2.4154    0.0000 C   0  0  3  0  0  0  0  0  0  0  0  0
    2.5000    2.6234    0.0000 C   0  0  0  0  0  0  0  0  0  0  0  0
    2.0000    1.7573    0.0000 C   0  0  0  0  0  0  0  0  0  0  0  0
    2.6691    1.0142    0.0000 C   0  0  0  0  0  0  0  0  0  0  0  0
    6.1808   -0.0791    0.0000 C   0  0  3  0  0  0  0  0  0  0  0  0
    5.3147   -0.5791    0.0000 C   0  0  3  0  0  0  0  0  0  0  0  0
    7.0943   -0.4858    0.0000 C   0  0  0  0  0  0  0  0  0  0  0  0
    4.2213    3.0846    0.0000 C   0  0  0  0  0  0  0  0  0  0  0  0
    4.4487    0.9209    0.0000 C   0  0  0  0  0  0  0  0  0  0  0  0
    5.3147   -1.5791    0.0000 C   0  0  0  0  0  0  0  0  0  0  0  0
    6.1808   -2.0791    0.0000 C   0  0  0  0  0  0  0  0  0  0  0  0
    4.4487   -2.0791    0.0000 C   0  0  0  0  0  0  0  0  0  0  0  0
  1 10  1  0  0  0  0 
  2 14  1  0  0  0  0 
  3  6  1  0  0  0  0 
  3  9  1  0  0  0  0 
  3 14  1  0  0  0  0 
  4 11  1  0  0  0  0 
  4 14  1  0  0  0  0 
  5 13  1  0  0  0  0 
  6  7  1  0  0  0  0 
  6 13  1  0  0  0  0 
  7  8  1  0  0  0  0 
  8  9  1  0  0  0  0 
 10 11  1  0  0  0  0 
 10 12  1  0  0  0  0 
 11 15  1  0  0  0  0 
 15 16  1  0  0  0  0 
 15 17  1  0  0  0  0 
M  END
> <PUBCHEM_COMPOUND_CID>
60547685

$$$$
