
  CDK     0224152114

 22 25  0  0  0  0  0  0  0  0999 V2000
   13.3385   -0.9739    0.0000 N   0  0  0  0  0  0  0  0  0  0  0  0
   11.5263   -0.7787    0.0000 N   0  0  0  0  0  0  0  0  0  0  0  0
    9.7942   -0.7787    0.0000 N   0  0  0  0  0  0  0  0  0  0  0  0
   10.6603   -2.2787    0.0000 N   0  0  0  0  0  0  0  0  0  0  0  0
   12.3923   -1.2787    0.0000 C   0  0  0  0  0  0  0  0  0  0  0  0
   13.6492   -0.0234    0.0000 C   0  0  0  0  0  0  0  0  0  0  0  0
   12.3923   -2.2787    0.0000 C   0  0  0  0  0  0  0  0  0  0  0  0
   13.9221   -1.7787    0.0000 C   0  0  0  0  0  0  0  0  0  0  0  0
   13.3385   -2.5834    0.0000 C   0  0  0  0  0  0  0  0  0  0  0  0
   14.2705    1.8776    0.0000 C   0  0  0  0  0  0  0  0  0  0  0  0
   14.6277    0.1828    0.0000 C   0  0  0  0  0  0  0  0  0  0  0  0
   12.9813    0.7209    0.0000 C   0  0  0  0  0  0  0  0  0  0  0  0
    7.1962   -2.2787    0.0000 C   0  0  0  0  0  0  0  0  0  0  0  0
   14.9384    1.1333    0.0000 C   0  0  0  0  0  0  0  0  0  0  0  0
   13.2920    1.6714    0.0000 C   0  0  0  0  0  0  0  0  0  0  0  0
   10.6603   -1.2787    0.0000 C   0  0  0  0  0  0  0  0  0  0  0  0
   11.5263   -2.7787    0.0000 C   0  0  0  0  0  0  0  0  0  0  0  0
    8.9282   -1.2787    0.0000 C   0  0  0  0  0  0  0  0  0  0  0  0
    8.0622   -2.7787    0.0000 C   0  0  0  0  0  0  0  0  0  0  0  0
    7.1962   -1.2787    0.0000 C   0  0  0  0  0  0  0  0  0  0  0  0
    8.9282   -2.2787    0.0000 C   0  0  0  0  0  0  0  0  0  0  0  0
    8.0622   -0.7787    0.0000 C   0  0  0  0  0  0  0  0  0  0  0  0
  1  5  1  0  0  0  0 
  1  6  1  0  0  0  0 
  1  8  1  0  0  0  0 
  2  5  1  0  0  0  0 
  2 16  1  0  0  0  0 
  3 16  1  0  0  0  0 
  3 18  1  0  0  0  0 
  4 16  1  0  0  0  0 
  4 17  1  0  0  0  0 
  5  7  1  0  0  0  0 
  6 11  1  0  0  0  0 
  6 12  1  0  0  0  0 
  7  9  1  0  0  0  0 
  7 17  1  0  0  0  0 
  8  9  1  0  0  0  0 
 10 14  1  0  0  0  0 
 10 15  1  0  0  0  0 
 11 14  1  0  0  0  0 
 12 15  1  0  0  0  0 
 13 19  1  0  0  0  0 
 13 20  1  0  0  0  0 
 18 21  1  0  0  0  0 
 18 22  1  0  0  0  0 
 19 21  1  0  0  0  0 
 20 22  1  0  0  0  0 
M  END
> <PUBCHEM_COMPOUND_CID>
44182792

$$$$

  CDK     0224152114

 22 25  0  0  0  0  0  0  0  0999 V2000
    8.9282    1.7329    0.0000 N   0  0  0  0  0  0  0  0  0  0  0  0
    8.9282   -0.2671    0.0000 C   0  0  1  0  0  0  0  0  0  0  0  0
    9.7942    0.2329    0.0000 C   0  0  0  0  0  0  0  0  0  0  0  0
   11.5942    1.2537    0.0000 C   0  0  1  0  0  0  0  0  0  0  0  0
    8.0622    0.2329    0.0000 C   0  0  3  0  0  0  0  0  0  0  0  0
   10.6882    1.7676    0.0000 C   0  0  0  0  0  0  0  0  0  0  0  0
    9.7942    1.2329    0.0000 C   0  0  0  0  0  0  0  0  0  0  0  0
   11.5942    0.2121    0.0000 C   0  0  0  0  0  0  0  0  0  0  0  0
   10.6882   -0.3017    0.0000 C   0  0  0  0  0  0  0  0  0  0  0  0
    8.0622    1.2329    0.0000 C   0  0  0  0  0  0  0  0  0  0  0  0
    8.9282   -1.2671    0.0000 C   0  0  0  0  0  0  0  0  0  0  0  0
   12.4583    1.7571    0.0000 C   0  0  0  0  0  0  0  0  0  0  0  0
    9.7942   -1.7671    0.0000 C   0  0  0  0  0  0  0  0  0  0  0  0
    8.0622   -1.7671    0.0000 C   0  0  0  0  0  0  0  0  0  0  0  0
   12.4545    2.7571    0.0000 C   0  0  0  0  0  0  0  0  0  0  0  0
   13.3263    1.2604    0.0000 C   0  0  0  0  0  0  0  0  0  0  0  0
    9.7942   -2.7671    0.0000 C   0  0  0  0  0  0  0  0  0  0  0  0
    8.0622   -2.7671    0.0000 C   0  0  0  0  0  0  0  0  0  0  0  0
   13.3186    3.2604    0.0000 C   0  0  0  0  0  0  0  0  0  0  0  0
   14.1904    1.7638    0.0000 C   0  0  0  0  0  0  0  0  0  0  0  0
    8.9282   -3.2671    0.0000 C   0  0  0  0  0  0  0  0  0  0  0  0
   14.1865    2.7637    0.0000 C   0  0  0  0  0  0  0  0  0  0  0  0
  1  7  1  0  0  0  0 
  1 10  1  0  0  0  0 
  2  3  1  0  0  0  0 
  2  5  1  0  0  0  0 
  2 11  1  6  0  0  0 
  3  7  1  0  0  0  0 
  3  9  1  0  0  0  0 
  4  6  1  0  0  0  0 
  4  8  1  0  0  0  0 
  4 12  1  6  0  0  0 
  5 10  1  0  0  0  0 
  6  7  1  0  0  0  0 
  8  9  1  0  0  0  0 
 11 13  1  0  0  0  0 
 11 14  1  0  0  0  0 
 12 15  1  0  0  0  0 
 12 16  1  0  0  0  0 
 13 17  1  0  0  0  0 
 14 18  1  0  0  0  0 
 15 19  1  0  0  0  0 
 16 20  1  0  0  0  0 
 17 21  1  0  0  0  0 
 18 21  1  0  0  0  0 
 19 22  1  0  0  0  0 
 20 22  1  0  0  0  0 
M  END
> <PUBCHEM_COMPOUND_CID>
41190365

$$$$
