
  CDK     0202151413

 22 23  0  0  0  0  0  0  0  0999 V2000
    3.3660   -3.1537    0.0000 O   0  0  0  0  0  0  0  0  0  0  0  0
    8.7139   -0.3339    0.0000 O   0  0  0  0  0  0  0  0  0  0  0  0
    8.2921    0.8736    0.0000 O   0  0  0  0  0  0  0  0  0  0  0  0
    6.9538   -0.6127    0.0000 N   0  0  0  0  0  0  0  0  0  0  0  0
    4.8660   -2.2877    0.0000 N   0  0  0  0  0  0  0  0  0  0  0  0
    6.9538   -2.2307    0.0000 N   0  0  0  0  0  0  0  0  0  0  0  0
    6.3660   -1.4217    0.0000 C   0  0  3  0  0  0  0  0  0  0  0  0
    5.8660   -0.5556    0.0000 C   0  0  0  0  0  0  0  0  0  0  0  0
    5.8660   -2.2877    0.0000 C   0  0  0  0  0  0  0  0  0  0  0  0
    4.8660   -0.5556    0.0000 C   0  0  0  0  0  0  0  0  0  0  0  0
    4.3660   -1.4217    0.0000 C   0  0  0  0  0  0  0  0  0  0  0  0
    7.9049   -0.9217    0.0000 C   0  0  0  0  0  0  0  0  0  0  0  0
    6.6448    0.3384    0.0000 C   0  0  0  0  0  0  0  0  0  0  0  0
    7.9049   -1.9217    0.0000 C   0  0  0  0  0  0  0  0  0  0  0  0
    4.3660   -3.1537    0.0000 C   0  0  0  0  0  0  0  0  0  0  0  0
    8.7139   -2.5095    0.0000 C   0  0  0  0  0  0  0  0  0  0  0  0
    7.3139    1.0816    0.0000 C   0  0  0  0  0  0  0  0  0  0  0  0
    7.0049    2.0326    0.0000 C   0  0  0  0  0  0  0  0  0  0  0  0
    9.6274   -2.1027    0.0000 C   0  0  0  0  0  0  0  0  0  0  0  0
    8.6094   -3.5040    0.0000 C   0  0  0  0  0  0  0  0  0  0  0  0
    7.6740    2.7758    0.0000 C   0  0  0  0  0  0  0  0  0  0  0  0
    6.0268    2.2405    0.0000 C   0  0  0  0  0  0  0  0  0  0  0  0
  1 15  1  0  0  0  0 
  2 12  1  0  0  0  0 
  3 17  1  0  0  0  0 
  4  7  1  0  0  0  0 
  4 12  1  0  0  0  0 
  4 13  1  0  0  0  0 
  5  9  1  0  0  0  0 
  5 11  1  0  0  0  0 
  5 15  1  0  0  0  0 
  6  7  1  0  0  0  0 
  6 14  1  0  0  0  0 
  7  8  1  0  0  0  0 
  7  9  1  0  0  0  0 
  8 10  1  0  0  0  0 
 10 11  1  0  0  0  0 
 12 14  1  0  0  0  0 
 13 17  1  0  0  0  0 
 14 16  1  0  0  0  0 
 16 19  1  0  0  0  0 
 16 20  1  0  0  0  0 
 17 18  1  0  0  0  0 
 18 21  1  0  0  0  0 
 18 22  1  0  0  0  0 
M  END
> <PUBCHEM_COMPOUND_CID>
59293769

$$$$

  CDK     0202151413

 22 23  0  0  0  0  0  0  0  0999 V2000
    3.3660   -3.1537    0.0000 O   0  0  0  0  0  0  0  0  0  0  0  0
    8.7139   -0.3339    0.0000 O   0  0  0  0  0  0  0  0  0  0  0  0
    8.2921    0.8736    0.0000 O   0  0  0  0  0  0  0  0  0  0  0  0
    6.9538   -0.6127    0.0000 N   0  0  0  0  0  0  0  0  0  0  0  0
    4.8660   -2.2877    0.0000 N   0  0  0  0  0  0  0  0  0  0  0  0
    6.9538   -2.2307    0.0000 N   0  0  0  0  0  0  0  0  0  0  0  0
    6.3660   -1.4217    0.0000 C   0  0  3  0  0  0  0  0  0  0  0  0
    5.8660   -0.5556    0.0000 C   0  0  0  0  0  0  0  0  0  0  0  0
    5.8660   -2.2877    0.0000 C   0  0  0  0  0  0  0  0  0  0  0  0
    4.8660   -0.5556    0.0000 C   0  0  0  0  0  0  0  0  0  0  0  0
    4.3660   -1.4217    0.0000 C   0  0  0  0  0  0  0  0  0  0  0  0
    7.9049   -0.9217    0.0000 C   0  0  0  0  0  0  0  0  0  0  0  0
    6.6448    0.3384    0.0000 C   0  0  0  0  0  0  0  0  0  0  0  0
    7.9049   -1.9217    0.0000 C   0  0  0  0  0  0  0  0  0  0  0  0
    4.3660   -3.1537    0.0000 C   0  0  0  0  0  0  0  0  0  0  0  0
    8.7139   -2.5095    0.0000 C   0  0  0  0  0  0  0  0  0  0  0  0
    7.3139    1.0816    0.0000 C   0  0  0  0  0  0  0  0  0  0  0  0
    7.0049    2.0326    0.0000 C   0  0  0  0  0  0  0  0  0  0  0  0
    9.6274   -2.1027    0.0000 C   0  0  0  0  0  0  0  0  0  0  0  0
    8.6094   -3.5040    0.0000 C   0  0  0  0  0  0  0  0  0  0  0  0
    7.6740    2.7758    0.0000 C   0  0  0  0  0  0  0  0  0  0  0  0
    6.0268    2.2405    0.0000 C   0  0  0  0  0  0  0  0  0  0  0  0
  1 15  1  0  0  0  0 
  2 12  1  0  0  0  0 
  3 17  1  0  0  0  0 
  4  7  1  0  0  0  0 
  4 12  1  0  0  0  0 
  4 13  1  0  0  0  0 
  5  9  1  0  0  0  0 
  5 11  1  0  0  0  0 
  5 15  1  0  0  0  0 
  6  7  1  0  0  0  0 
  6 14  1  0  0  0  0 
  7  8  1  0  0  0  0 
  7  9  1  0  0  0  0 
  8 10  1  0  0  0  0 
 10 11  1  0  0  0  0 
 12 14  1  0  0  0  0 
 13 17  1  0  0  0  0 
 14 16  1  0  0  0  0 
 16 19  1  0  0  0  0 
 16 20  1  0  0  0  0 
 17 18  1  0  0  0  0 
 18 21  1  0  0  0  0 
 18 22  1  0  0  0  0 
M  END
> <PUBCHEM_COMPOUND_CID>
59293769

$$$$
