
  CDK     0202151413

 18 19  0  0  0  0  0  0  0  0999 V2000
   10.0091   -1.1012    0.0000 O   0  0  0  0  0  0  0  0  0  0  0  0
   10.8751    0.3988    0.0000 N   0  0  0  0  0  0  0  0  0  0  0  0
    7.5604    0.7352    0.0000 N   0  0  0  0  0  0  0  0  0  0  0  0
    8.0604    1.6012    0.0000 N   0  0  0  0  0  0  0  0  0  0  0  0
    5.9781    1.4397    0.0000 N   0  0  0  0  0  0  0  0  0  0  0  0
   13.4732   -0.1012    0.0000 C   0  0  0  0  0  0  0  0  0  0  0  0
   13.4732   -1.1012    0.0000 C   0  0  0  0  0  0  0  0  0  0  0  0
   12.6072    0.3988    0.0000 C   0  0  0  0  0  0  0  0  0  0  0  0
   12.6072   -1.6012    0.0000 C   0  0  0  0  0  0  0  0  0  0  0  0
   11.7411   -0.1012    0.0000 C   0  0  0  0  0  0  0  0  0  0  0  0
   11.7411   -1.1012    0.0000 C   0  0  0  0  0  0  0  0  0  0  0  0
    9.1431    0.3988    0.0000 C   0  0  0  0  0  0  0  0  0  0  0  0
   10.0091   -0.1012    0.0000 C   0  0  0  0  0  0  0  0  0  0  0  0
    8.2295   -0.0080    0.0000 C   0  0  0  0  0  0  0  0  0  0  0  0
    9.0385    1.3933    0.0000 C   0  0  0  0  0  0  0  0  0  0  0  0
    8.0216   -0.9861    0.0000 C   0  0  0  0  0  0  0  0  0  0  0  0
    6.5659    0.6307    0.0000 C   0  0  0  0  0  0  0  0  0  0  0  0
    6.1591   -0.2829    0.0000 C   0  0  0  0  0  0  0  0  0  0  0  0
  1 13  1  0  0  0  0 
  2 10  1  0  0  0  0 
  2 13  1  0  0  0  0 
  3  4  1  0  0  0  0 
  3 14  1  0  0  0  0 
  3 17  1  0  0  0  0 
  4 15  1  0  0  0  0 
  5 17  1  0  0  0  0 
  6  7  1  0  0  0  0 
  6  8  1  0  0  0  0 
  7  9  1  0  0  0  0 
  8 10  1  0  0  0  0 
  9 11  1  0  0  0  0 
 10 11  1  0  0  0  0 
 12 13  1  0  0  0  0 
 12 14  1  0  0  0  0 
 12 15  1  0  0  0  0 
 14 16  1  0  0  0  0 
 17 18  1  0  0  0  0 
M  END
> <PUBCHEM_COMPOUND_CID>
40382685

$$$$
