
  CDK     0202151413

 19 19  0  0  0  0  0  0  0  0999 V2000
    6.9100    1.5764    0.0000 O   0  0  0  0  0  0  0  0  0  0  0  0
    5.4543   -0.0403    0.0000 O   0  0  0  0  0  0  0  0  0  0  0  0
    2.6008    1.3445    0.0000 O   0  0  0  0  0  0  0  0  0  0  0  0
    5.4155    2.5470    0.0000 N   0  0  0  0  0  0  0  0  0  0  0  0
    2.7431    2.6992    0.0000 N   0  0  0  0  0  0  0  0  0  0  0  0
    4.4374    2.3391    0.0000 C   0  0  1  0  0  0  0  0  0  0  0  0
    4.3328    1.3445    0.0000 C   0  0  0  0  0  0  0  0  0  0  0  0
    5.8222    3.4605    0.0000 C   0  0  0  0  0  0  0  0  0  0  0  0
    5.9155    1.6809    0.0000 C   0  0  0  0  0  0  0  0  0  0  0  0
    3.6942    3.0082    0.0000 C   0  0  0  0  0  0  0  0  0  0  0  0
    5.2464    0.9378    0.0000 C   0  0  0  0  0  0  0  0  0  0  0  0
    3.4668    0.8445    0.0000 C   0  0  0  0  0  0  0  0  0  0  0  0
    6.8168    3.5650    0.0000 C   0  0  0  0  0  0  0  0  0  0  0  0
    3.9021    3.9863    0.0000 C   0  0  0  0  0  0  0  0  0  0  0  0
    3.4668   -0.1555    0.0000 C   0  0  0  0  0  0  0  0  0  0  0  0
    2.6008   -0.6555    0.0000 C   0  0  0  0  0  0  0  0  0  0  0  0
    4.3328   -0.6555    0.0000 C   0  0  0  0  0  0  0  0  0  0  0  0
    2.6008   -1.6555    0.0000 C   0  0  0  0  0  0  0  0  0  0  0  0
    4.3328   -1.6555    0.0000 C   0  0  0  0  0  0  0  0  0  0  0  0
  1  9  1  0  0  0  0 
  2 11  1  0  0  0  0 
  3 12  1  0  0  0  0 
  4  6  1  0  0  0  0 
  4  8  1  0  0  0  0 
  4  9  1  0  0  0  0 
  5 10  1  0  0  0  0 
  6  7  1  0  0  0  0 
  6 10  1  0  0  0  0 
  7 11  1  0  0  0  0 
  7 12  1  3  0  0  0 
  8 13  1  0  0  0  0 
  9 11  1  0  0  0  0 
 10 14  1  0  0  0  0 
 12 15  1  0  0  0  0 
 15 16  1  0  0  0  0 
 15 17  1  0  0  0  0 
 16 18  1  0  0  0  0 
 17 19  1  0  0  0  0 
M  END
> <PUBCHEM_COMPOUND_CID>
1525165

$$$$

  CDK     0202151413

 19 19  0  0  0  0  0  0  0  0999 V2000
    6.9100    1.5764    0.0000 O   0  0  0  0  0  0  0  0  0  0  0  0
    5.4543   -0.0403    0.0000 O   0  0  0  0  0  0  0  0  0  0  0  0
    2.6008    1.3445    0.0000 O   0  0  0  0  0  0  0  0  0  0  0  0
    5.4155    2.5470    0.0000 N   0  0  0  0  0  0  0  0  0  0  0  0
    2.7431    2.6992    0.0000 N   0  0  0  0  0  0  0  0  0  0  0  0
    4.4374    2.3391    0.0000 C   0  0  1  0  0  0  0  0  0  0  0  0
    4.3328    1.3445    0.0000 C   0  0  0  0  0  0  0  0  0  0  0  0
    5.8222    3.4605    0.0000 C   0  0  0  0  0  0  0  0  0  0  0  0
    5.9155    1.6809    0.0000 C   0  0  0  0  0  0  0  0  0  0  0  0
    3.6942    3.0082    0.0000 C   0  0  0  0  0  0  0  0  0  0  0  0
    5.2464    0.9378    0.0000 C   0  0  0  0  0  0  0  0  0  0  0  0
    3.4668    0.8445    0.0000 C   0  0  0  0  0  0  0  0  0  0  0  0
    6.8168    3.5650    0.0000 C   0  0  0  0  0  0  0  0  0  0  0  0
    3.9021    3.9863    0.0000 C   0  0  0  0  0  0  0  0  0  0  0  0
    3.4668   -0.1555    0.0000 C   0  0  0  0  0  0  0  0  0  0  0  0
    2.6008   -0.6555    0.0000 C   0  0  0  0  0  0  0  0  0  0  0  0
    4.3328   -0.6555    0.0000 C   0  0  0  0  0  0  0  0  0  0  0  0
    2.6008   -1.6555    0.0000 C   0  0  0  0  0  0  0  0  0  0  0  0
    4.3328   -1.6555    0.0000 C   0  0  0  0  0  0  0  0  0  0  0  0
  1  9  1  0  0  0  0 
  2 11  1  0  0  0  0 
  3 12  1  0  0  0  0 
  4  6  1  0  0  0  0 
  4  8  1  0  0  0  0 
  4  9  1  0  0  0  0 
  5 10  1  0  0  0  0 
  6  7  1  0  0  0  0 
  6 10  1  0  0  0  0 
  7 11  1  0  0  0  0 
  7 12  1  3  0  0  0 
  8 13  1  0  0  0  0 
  9 11  1  0  0  0  0 
 10 14  1  0  0  0  0 
 12 15  1  0  0  0  0 
 15 16  1  0  0  0  0 
 15 17  1  0  0  0  0 
 16 18  1  0  0  0  0 
 17 19  1  0  0  0  0 
M  END
> <PUBCHEM_COMPOUND_CID>
1525165

$$$$
