
  CDK     0224152114

 24 25  0  0  0  0  0  0  0  0999 V2000
    9.4651    3.8100    0.0000 Br  0  0  0  0  0  0  0  0  0  0  0  0
    3.4641    4.0000    0.0000 S   0  0  0  0  0  0  0  0  0  0  0  0
    1.7320    4.0000    0.0000 N   0  0  0  0  0  0  0  0  0  0  0  0
    2.5981    5.5000    0.0000 N   0  0  0  0  0  0  0  0  0  0  0  0
    4.3301    4.5000    0.0000 C   0  0  0  0  0  0  0  0  0  0  0  0
    5.1962    4.0000    0.0000 C   0  0  0  0  0  0  0  0  0  0  0  0
    1.7320    3.0000    0.0000 C   0  0  0  0  0  0  0  0  0  0  0  0
    2.5981    4.5000    0.0000 C   0  0  0  0  0  0  0  0  0  0  0  0
    5.1962    3.0000    0.0000 C   0  0  0  0  0  0  0  0  0  0  0  0
    6.0622    4.5000    0.0000 C   0  0  0  0  0  0  0  0  0  0  0  0
    3.4641    6.0000    0.0000 C   0  0  0  0  0  0  0  0  0  0  0  0
    0.8660    2.5000    0.0000 C   0  0  0  0  0  0  0  0  0  0  0  0
    2.5981    2.5000    0.0000 C   0  0  0  0  0  0  0  0  0  0  0  0
    6.0622    2.5000    0.0000 C   0  0  0  0  0  0  0  0  0  0  0  0
    6.9282    4.0000    0.0000 C   0  0  0  0  0  0  0  0  0  0  0  0
    6.9282    3.0000    0.0000 C   0  0  0  0  0  0  0  0  0  0  0  0
    0.8660    1.5000    0.0000 C   0  0  0  0  0  0  0  0  0  0  0  0
    2.5981    1.5000    0.0000 C   0  0  0  0  0  0  0  0  0  0  0  0
    4.3301    5.5000    0.0000 C   0  0  0  0  0  0  0  0  0  0  0  0
    3.4641    7.0000    0.0000 C   0  0  0  0  0  0  0  0  0  0  0  0
    1.7320    1.0000    0.0000 C   0  0  0  0  0  0  0  0  0  0  0  0
    5.1962    6.0000    0.0000 C   0  0  0  0  0  0  0  0  0  0  0  0
    4.3301    7.5000    0.0000 C   0  0  0  0  0  0  0  0  0  0  0  0
    5.1962    7.0000    0.0000 C   0  0  0  0  0  0  0  0  0  0  0  0
  2  5  1  0  0  0  0 
  2  8  1  0  0  0  0 
  3  7  1  0  0  0  0 
  3  8  1  0  0  0  0 
  4  8  1  0  0  0  0 
  4 11  1  0  0  0  0 
  5  6  1  0  0  0  0 
  6  9  1  0  0  0  0 
  6 10  1  0  0  0  0 
  7 12  1  0  0  0  0 
  7 13  1  0  0  0  0 
  9 14  1  0  0  0  0 
 10 15  1  0  0  0  0 
 11 19  1  0  0  0  0 
 11 20  1  0  0  0  0 
 12 17  1  0  0  0  0 
 13 18  1  0  0  0  0 
 14 16  1  0  0  0  0 
 15 16  1  0  0  0  0 
 17 21  1  0  0  0  0 
 18 21  1  0  0  0  0 
 19 22  1  0  0  0  0 
 20 23  1  0  0  0  0 
 22 24  1  0  0  0  0 
 23 24  1  0  0  0  0 
M  END
> <PUBCHEM_COMPOUND_CID>
23100455

$$$$
