11569483
  CDK     1227140956

 68 71  0  0  0  0  0  0  0  0999 V2000
    3.7320   -3.2500    0.0000 F   0  0  0  0  0  0  0  0  0  0  0  0
   11.5263    6.2500    0.0000 O   0  0  0  0  0  0  0  0  0  0  0  0
   11.5263    1.2500    0.0000 O   0  0  0  0  0  0  0  0  0  0  0  0
    5.4641   -0.2500    0.0000 O   0  0  0  0  0  0  0  0  0  0  0  0
   11.5263    4.2500    0.0000 N   0  0  0  0  0  0  0  0  0  0  0  0
    9.7942    1.2500    0.0000 N   0  0  0  0  0  0  0  0  0  0  0  0
    8.0622   -1.7500    0.0000 N   0  0  0  0  0  0  0  0  0  0  0  0
    5.4641   -4.2500    0.0000 N   0  0  0  0  0  0  0  0  0  0  0  0
    9.7942   -1.7500    0.0000 N   0  0  0  0  0  0  0  0  0  0  0  0
   10.6603    4.7500    0.0000 C   0  0  0  0  0  0  0  0  0  0  0  0
   12.3923    4.7500    0.0000 C   0  0  0  0  0  0  0  0  0  0  0  0
   11.5263    3.2500    0.0000 C   0  0  0  0  0  0  0  0  0  0  0  0
   10.6603    5.7500    0.0000 C   0  0  0  0  0  0  0  0  0  0  0  0
   12.3923    5.7500    0.0000 C   0  0  0  0  0  0  0  0  0  0  0  0
   10.6603    2.7500    0.0000 C   0  0  0  0  0  0  0  0  0  0  0  0
   10.6603    1.7500    0.0000 C   0  0  0  0  0  0  0  0  0  0  0  0
    9.7942    0.2500    0.0000 C   0  0  0  0  0  0  0  0  0  0  0  0
    8.9282   -0.2500    0.0000 C   0  0  0  0  0  0  0  0  0  0  0  0
    7.1962   -1.2500    0.0000 C   0  0  0  0  0  0  0  0  0  0  0  0
    8.9282   -1.2500    0.0000 C   0  0  0  0  0  0  0  0  0  0  0  0
    6.3301   -1.7500    0.0000 C   0  0  0  0  0  0  0  0  0  0  0  0
    8.0622    0.2500    0.0000 C   0  0  0  0  0  0  0  0  0  0  0  0
    7.1962   -0.2500    0.0000 C   0  0  0  0  0  0  0  0  0  0  0  0
    5.4641   -3.2500    0.0000 C   0  0  0  0  0  0  0  0  0  0  0  0
    6.3301   -2.7500    0.0000 C   0  0  0  0  0  0  0  0  0  0  0  0
    5.4641   -1.2500    0.0000 C   0  0  0  0  0  0  0  0  0  0  0  0
    4.5981   -4.7500    0.0000 C   0  0  0  0  0  0  0  0  0  0  0  0
    4.5981   -2.7500    0.0000 C   0  0  0  0  0  0  0  0  0  0  0  0
    4.5981   -1.7500    0.0000 C   0  0  0  0  0  0  0  0  0  0  0  0
    6.3301   -4.7500    0.0000 C   0  0  0  0  0  0  0  0  0  0  0  0
    3.7320   -4.2500    0.0000 C   0  0  0  0  0  0  0  0  0  0  0  0
    4.5981   -5.7500    0.0000 C   0  0  0  0  0  0  0  0  0  0  0  0
    2.8660   -5.7500    0.0000 C   0  0  0  0  0  0  0  0  0  0  0  0
    2.8660   -4.7500    0.0000 C   0  0  0  0  0  0  0  0  0  0  0  0
    3.7320   -6.2500    0.0000 C   0  0  0  0  0  0  0  0  0  0  0  0
    2.0000   -6.2500    0.0000 C   0  0  0  0  0  0  0  0  0  0  0  0
   12.6044    4.1674    0.0000 H   0  0  0  0  0  0  0  0  0  0  0  0
   13.0029    4.8577    0.0000 H   0  0  0  0  0  0  0  0  0  0  0  0
   10.0497    4.8577    0.0000 H   0  0  0  0  0  0  0  0  0  0  0  0
   10.4482    4.1674    0.0000 H   0  0  0  0  0  0  0  0  0  0  0  0
   11.7383    2.6674    0.0000 H   0  0  0  0  0  0  0  0  0  0  0  0
   12.1369    3.3577    0.0000 H   0  0  0  0  0  0  0  0  0  0  0  0
   10.4482    6.3326    0.0000 H   0  0  0  0  0  0  0  0  0  0  0  0
   13.0029    5.6423    0.0000 H   0  0  0  0  0  0  0  0  0  0  0  0
   12.6044    6.3326    0.0000 H   0  0  0  0  0  0  0  0  0  0  0  0
   10.0497    5.6423    0.0000 H   0  0  0  0  0  0  0  0  0  0  0  0
   10.4482    3.3326    0.0000 H   0  0  0  0  0  0  0  0  0  0  0  0
   10.0497    2.6423    0.0000 H   0  0  0  0  0  0  0  0  0  0  0  0
   10.0063   -0.3326    0.0000 H   0  0  0  0  0  0  0  0  0  0  0  0
   10.4048    0.3577    0.0000 H   0  0  0  0  0  0  0  0  0  0  0  0
    9.2573    1.5600    0.0000 H   0  0  0  0  0  0  0  0  0  0  0  0
    8.0622    0.8700    0.0000 H   0  0  0  0  0  0  0  0  0  0  0  0
    8.0622   -2.3700    0.0000 H   0  0  0  0  0  0  0  0  0  0  0  0
    6.6592    0.0600    0.0000 H   0  0  0  0  0  0  0  0  0  0  0  0
    6.8671   -3.0600    0.0000 H   0  0  0  0  0  0  0  0  0  0  0  0
    4.0611   -3.0600    0.0000 H   0  0  0  0  0  0  0  0  0  0  0  0
    4.0611   -1.4400    0.0000 H   0  0  0  0  0  0  0  0  0  0  0  0
   10.3312   -1.4400    0.0000 H   0  0  0  0  0  0  0  0  0  0  0  0
    9.7942   -2.3700    0.0000 H   0  0  0  0  0  0  0  0  0  0  0  0
    6.0201   -5.2869    0.0000 H   0  0  0  0  0  0  0  0  0  0  0  0
    6.8671   -5.0600    0.0000 H   0  0  0  0  0  0  0  0  0  0  0  0
    6.6401   -4.2131    0.0000 H   0  0  0  0  0  0  0  0  0  0  0  0
    5.1350   -6.0600    0.0000 H   0  0  0  0  0  0  0  0  0  0  0  0
    2.3291   -4.4400    0.0000 H   0  0  0  0  0  0  0  0  0  0  0  0
    3.7320   -6.8700    0.0000 H   0  0  0  0  0  0  0  0  0  0  0  0
    1.6900   -5.7131    0.0000 H   0  0  0  0  0  0  0  0  0  0  0  0
    1.4631   -6.5600    0.0000 H   0  0  0  0  0  0  0  0  0  0  0  0
    2.3100   -6.7869    0.0000 H   0  0  0  0  0  0  0  0  0  0  0  0
  1 31  1  0  0  0  0 
  2 13  1  0  0  0  0 
  2 14  1  0  0  0  0 
  3 16  2  0  0  0  0 
  4 26  2  0  0  0  0 
  5 10  1  0  0  0  0 
  5 11  1  0  0  0  0 
  5 12  1  0  0  0  0 
  6 16  1  0  0  0  0 
  6 17  1  0  0  0  0 
  6 51  1  0  0  0  0 
  7 19  1  0  0  0  0 
  7 20  1  0  0  0  0 
  7 53  1  0  0  0  0 
  8 24  1  0  0  0  0 
  8 27  1  0  0  0  0 
  8 30  1  0  0  0  0 
  9 20  1  0  0  0  0 
  9 58  1  0  0  0  0 
  9 59  1  0  0  0  0 
 10 13  1  0  0  0  0 
 10 39  1  0  0  0  0 
 10 40  1  0  0  0  0 
 11 14  1  0  0  0  0 
 11 37  1  0  0  0  0 
 11 38  1  0  0  0  0 
 12 15  1  0  0  0  0 
 12 41  1  0  0  0  0 
 12 42  1  0  0  0  0 
 13 43  1  0  0  0  0 
 13 46  1  0  0  0  0 
 14 44  1  0  0  0  0 
 14 45  1  0  0  0  0 
 15 16  1  0  0  0  0 
 15 47  1  0  0  0  0 
 15 48  1  0  0  0  0 
 17 18  1  0  0  0  0 
 17 49  1  0  0  0  0 
 17 50  1  0  0  0  0 
 18 20  2  0  0  0  0 
 18 22  1  0  0  0  0 
 19 21  2  0  0  0  0 
 19 23  1  0  0  0  0 
 21 25  1  0  0  0  0 
 21 26  1  0  0  0  0 
 22 23  2  0  0  0  0 
 22 52  1  0  0  0  0 
 23 54  1  0  0  0  0 
 24 25  2  0  0  0  0 
 24 28  1  0  0  0  0 
 25 55  1  0  0  0  0 
 26 29  1  0  0  0  0 
 27 31  2  0  0  0  0 
 27 32  1  0  0  0  0 
 28 29  2  0  0  0  0 
 28 56  1  0  0  0  0 
 29 57  1  0  0  0  0 
 30 60  1  0  0  0  0 
 30 61  1  0  0  0  0 
 30 62  1  0  0  0  0 
 31 34  1  0  0  0  0 
 32 35  2  0  0  0  0 
 32 63  1  0  0  0  0 
 33 34  2  0  0  0  0 
 33 35  1  0  0  0  0 
 33 36  1  0  0  0  0 
 34 64  1  0  0  0  0 
 35 65  1  0  0  0  0 
 36 66  1  0  0  0  0 
 36 67  1  0  0  0  0 
 36 68  1  0  0  0  0 
M  END
> <cdk:Title>
11569483

> <cdk:Remark>
null

> <PUBCHEM_COMPOUND_CID>
11569483

> <PUBCHEM_COMPOUND_CANONICALIZED>
1

> <PUBCHEM_CACTVS_COMPLEXITY>
1010

> <PUBCHEM_CACTVS_HBOND_ACCEPTOR>
8

> <PUBCHEM_CACTVS_HBOND_DONOR>
3

> <PUBCHEM_CACTVS_ROTATABLE_BOND>
7

> <PUBCHEM_CACTVS_SUBSKEYS>
AAADcfB7sQAAAAAAAAAAAAAAAAAAAAAAAAA8QIEAAAAAAAABAAAAHwAQAAAADAzhmA4zwIPABACIAqVSUACCAAAhAgAIiIEIZMiKICrA0ZGHIAhglgLYyccQgAAOCAAAAAAAAAAQAAAAAAAAAAAAAAAAAA==

> <PUBCHEM_IUPAC_OPENEYE_NAME>
N-[[(6E)-2-amino-6-[3-(2-fluoro-N,4-dimethyl-anilino)-6-oxo-cyclohexa-2,4-dien-1-ylidene]-1H-pyridin-3-yl]methyl]-3-morpholino-propanamide

> <PUBCHEM_IUPAC_CAS_NAME>
N-[[(6E)-2-amino-6-[3-(2-fluoro-N,4-dimethylanilino)-6-oxo-1-cyclohexa-2,4-dienylidene]-1H-pyridin-3-yl]methyl]-3-(4-morpholinyl)propanamide

> <PUBCHEM_IUPAC_NAME>
N-[[(6E)-2-amino-6-[3-(2-fluoro-N,4-dimethylanilino)-6-oxocyclohexa-2,4-dien-1-ylidene]-1H-pyridin-3-yl]methyl]-3-morpholin-4-ylpropanamide

> <PUBCHEM_IUPAC_SYSTEMATIC_NAME>
N-[[(6E)-2-azanyl-6-[3-[(2-fluoranyl-4-methyl-phenyl)-methyl-amino]-6-oxidanylidene-cyclohexa-2,4-dien-1-ylidene]-1H-pyridin-3-yl]methyl]-3-morpholin-4-yl-propanamide

> <PUBCHEM_IUPAC_TRADITIONAL_NAME>
N-[[(6E)-2-amino-6-[3-(2-fluoro-N,4-dimethyl-anilino)-6-keto-cyclohexa-2,4-dien-1-ylidene]-1H-pyridin-3-yl]methyl]-3-morpholino-propionamide

> <PUBCHEM_IUPAC_INCHI>
InChI=1S/C27H32FN5O3/c1-18-3-7-24(22(28)15-18)32(2)20-5-8-25(34)21(16-20)23-6-4-19(27(29)31-23)17-30-26(35)9-10-33-11-13-36-14-12-33/h3-8,15-16,31H,9-14,17,29H2,1-2H3,(H,30,35)/b23-21+

> <PUBCHEM_IUPAC_INCHIKEY>
ZLFCJBDLFFSBHL-XTQSDGFTSA-N

> <PUBCHEM_XLOGP3_AA>
2.4

> <PUBCHEM_EXACT_MASS>
493.248918

> <PUBCHEM_MOLECULAR_FORMULA>
C27H32FN5O3

> <PUBCHEM_MOLECULAR_WEIGHT>
493.573083

> <PUBCHEM_OPENEYE_CAN_SMILES>
CC1=CC(=C(C=C1)N(C)C2=CC(=C3C=CC(=C(N3)N)CNC(=O)CCN4CCOCC4)C(=O)C=C2)F

> <PUBCHEM_OPENEYE_ISO_SMILES>
CC1=CC(=C(C=C1)N(C)C2=C/C(=C\3/C=CC(=C(N3)N)CNC(=O)CCN4CCOCC4)/C(=O)C=C2)F

> <PUBCHEM_CACTVS_TPSA>
99.9

> <PUBCHEM_MONOISOTOPIC_WEIGHT>
493.248918

> <PUBCHEM_TOTAL_CHARGE>
0

> <PUBCHEM_HEAVY_ATOM_COUNT>
36

> <PUBCHEM_ATOM_DEF_STEREO_COUNT>
0

> <PUBCHEM_ATOM_UDEF_STEREO_COUNT>
0

> <PUBCHEM_BOND_DEF_STEREO_COUNT>
1

> <PUBCHEM_BOND_UDEF_STEREO_COUNT>
0

> <PUBCHEM_ISOTOPIC_ATOM_COUNT>
0

> <PUBCHEM_COMPONENT_COUNT>
1

> <PUBCHEM_CACTVS_TAUTO_COUNT>
24

> <PUBCHEM_COORDINATE_TYPE>
1

> <PUBCHEM_BONDANNOTATIONS>
27  31  8

$$$$
