
  CDK     1223141415

  8  6  0  0  0  0  0  0  0  0999 V2000
    8.0622    5.0000    0.0000 N   0  0  0  0  0  0  0  0  0  0  0  0
    8.0622   13.1760    0.0000 C   0  0  0  0  0  0  0  0  0  0  0  0
    7.1962   12.6760    0.0000 C   0  0  0  0  0  0  0  0  0  0  0  0
    8.9282   12.6760    0.0000 C   0  0  0  0  0  0  0  0  0  0  0  0
    7.1962   11.6760    0.0000 C   0  0  0  0  0  0  0  0  0  0  0  0
    8.9282   11.6760    0.0000 C   0  0  0  0  0  0  0  0  0  0  0  0
    8.0622   11.1760    0.0000 C   0  0  0  0  0  0  0  0  0  0  0  0
    0.8660    8.7895    0.0000 C   0  0  0  0  0  0  0  0  0  0  0  0
  2  3  1  0  0  0  0 
  2  4  1  0  0  0  0 
  3  5  1  0  0  0  0 
  4  6  1  0  0  0  0 
  5  7  1  0  0  0  0 
  6  7  1  0  0  0  0 
M  END
> <PUBCHEM_COMPOUND_CID>
16220171

$$$$
