
  CDK     1227140956

 15  0  0  0  0  0  0  0  0  0999 V2000
    5.1350   -0.1900    0.0000 S   0  0  0  0  0  0  0  0  0  0  0  0
    6.8671    0.8100    0.0000 O   0  0  0  0  0  0  0  0  0  0  0  0
    8.5991    0.8100    0.0000 O   0  0  0  0  0  0  0  0  0  0  0  0
    2.5369   -0.6900    0.0000 N   0  0  0  0  0  0  0  0  0  0  0  0
    7.7331   -0.6900    0.0000 N   0  0  0  0  0  0  0  0  0  0  0  0
    9.4651   -0.6900    0.0000 N   0  0  0  0  0  0  0  0  0  0  0  0
    3.4030   -0.1900    0.0000 C   0  0  3  0  0  0  0  0  0  0  0  0
    3.4030    0.8100    0.0000 C   0  0  0  0  0  0  0  0  0  0  0  0
    4.2690   -0.6900    0.0000 C   0  0  0  0  0  0  0  0  0  0  0  0
    2.5369    1.3100    0.0000 C   0  0  0  0  0  0  0  0  0  0  0  0
    6.0010   -0.6900    0.0000 C   0  0  0  0  0  0  0  0  0  0  0  0
    6.8671   -0.1900    0.0000 C   0  0  0  0  0  0  0  0  0  0  0  0
   10.3312   -0.1900    0.0000 C   0  0  0  0  0  0  0  0  0  0  0  0
    8.5991   -0.1900    0.0000 C   0  0  0  0  0  0  0  0  0  0  0  0
   11.1972   -0.6900    0.0000 C   0  0  0  0  0  0  0  0  0  0  0  0
M  END
> <PUBCHEM_COMPOUND_CID>
66228920

$$$$
