
  CDK     0202151413

  9  8  0  0  0  0  0  0  0  0999 V2000
    4.5981   -1.0600    0.0000 S   0  0  0  0  0  0  0  0  0  0  0  0
    2.8660   -0.0600    0.0000 O   0  0  0  0  0  0  0  0  0  0  0  0
    3.7320    1.4400    0.0000 N   0  0  0  0  0  0  0  0  0  0  0  0
    2.8660    2.9400    0.0000 C   0  0  1  0  0  0  0  0  0  0  0  0
    2.8660    1.9400    0.0000 C   0  0  0  0  0  0  0  0  0  0  0  0
    4.5981    1.9400    0.0000 C   0  0  0  0  0  0  0  0  0  0  0  0
    3.7320    0.4400    0.0000 C   0  0  0  0  0  0  0  0  0  0  0  0
    4.5981   -0.0600    0.0000 C   0  0  0  0  0  0  0  0  0  0  0  0
    5.4641   -1.5600    0.0000 C   0  0  0  0  0  0  0  0  0  0  0  0
  1  8  1  0  0  0  0 
  1  9  1  0  0  0  0 
  2  7  1  0  0  0  0 
  3  5  1  0  0  0  0 
  3  6  1  0  0  0  0 
  3  7  1  0  0  0  0 
  4  5  1  0  0  0  0 
  7  8  1  0  0  0  0 
M  END
> <PUBCHEM_COMPOUND_CID>
51682807

$$$$
