
  CDK     0202151410

 23 23  0  0  0  0  0  0  0  0999 V2000
    5.0268    2.0374    0.0000 S   0  0  0  0  0  0  0  0  0  0  0  0
    4.5981    0.8220    0.0000 O   0  0  0  0  0  0  0  0  0  0  0  0
    7.1962    1.3220    0.0000 O   0  0  0  0  0  0  0  0  0  0  0  0
    6.3301   -0.1780    0.0000 N   0  0  0  0  0  0  0  0  0  0  0  0
    3.7320   -0.6780    0.0000 N   0  0  0  0  0  0  0  0  0  0  0  0
    4.9920    3.0368    0.0000 N   0  0  0  0  0  0  0  0  0  0  0  0
    7.5467    2.6257    0.0000 N   0  0  0  0  0  0  0  0  0  0  0  0
    2.8660   -0.1780    0.0000 C   0  0  0  0  0  0  0  0  0  0  0  0
    5.4641   -0.6780    0.0000 C   0  0  2  0  0  0  0  0  0  0  0  0
    4.5981   -0.1780    0.0000 C   0  0  0  0  0  0  0  0  0  0  0  0
    5.4641   -1.6780    0.0000 C   0  0  0  0  0  0  0  0  0  0  0  0
    7.1962   -0.6780    0.0000 C   0  0  0  0  0  0  0  0  0  0  0  0
    6.3301    0.8220    0.0000 C   0  0  0  0  0  0  0  0  0  0  0  0
    8.0622   -0.1780    0.0000 C   0  0  0  0  0  0  0  0  0  0  0  0
    4.5981   -2.1780    0.0000 C   0  0  0  0  0  0  0  0  0  0  0  0
    6.3301   -2.1780    0.0000 C   0  0  0  0  0  0  0  0  0  0  0  0
    5.9881    1.7617    0.0000 C   0  0  0  0  0  0  0  0  0  0  0  0
    4.5981   -3.1780    0.0000 C   0  0  0  0  0  0  0  0  0  0  0  0
    6.3301   -3.1780    0.0000 C   0  0  0  0  0  0  0  0  0  0  0  0
    8.0622    0.8220    0.0000 C   0  0  0  0  0  0  0  0  0  0  0  0
    8.9282   -0.6780    0.0000 C   0  0  0  0  0  0  0  0  0  0  0  0
    6.5473    2.5908    0.0000 C   0  0  0  0  0  0  0  0  0  0  0  0
    5.9316    3.3788    0.0000 C   0  0  0  0  0  0  0  0  0  0  0  0
  1  6  1  0  0  0  0 
  1 17  1  0  0  0  0 
  2 10  1  0  0  0  0 
  3 13  1  0  0  0  0 
  9  4  1  1  0  0  0 
  4 12  1  0  0  0  0 
  4 13  1  0  0  0  0 
  5  8  1  0  0  0  0 
  5 10  1  0  0  0  0 
  6 23  1  0  0  0  0 
  7 22  1  0  0  0  0 
  9 10  1  0  0  0  0 
  9 11  1  0  0  0  0 
 11 15  1  0  0  0  0 
 11 16  1  0  0  0  0 
 12 14  1  0  0  0  0 
 13 17  1  0  0  0  0 
 14 20  1  0  0  0  0 
 14 21  1  0  0  0  0 
 15 18  1  0  0  0  0 
 16 19  1  0  0  0  0 
 17 22  1  0  0  0  0 
 22 23  1  0  0  0  0 
M  END
> <PUBCHEM_COMPOUND_CID>
40581200

$$$$
