
  CDK     0202151413

 21 22  0  0  0  0  0  0  0  0999 V2000
    7.0692    4.3907    0.0000 O   0  0  0  0  0  0  0  0  0  0  0  0
    4.2493   -0.9571    0.0000 O   0  0  0  0  0  0  0  0  0  0  0  0
    4.8936    4.3907    0.0000 O   0  0  0  0  0  0  0  0  0  0  0  0
    7.9494    1.3435    0.0000 O   0  0  0  0  0  0  0  0  0  0  0  0
    8.3801    3.9853    0.0000 O   0  0  0  0  0  0  0  0  0  0  0  0
    5.1724    2.6307    0.0000 N   0  0  0  0  0  0  0  0  0  0  0  0
    5.9814    2.0429    0.0000 C   0  0  3  0  0  0  0  0  0  0  0  0
    6.7904    2.6307    0.0000 C   0  0  0  0  0  0  0  0  0  0  0  0
    5.9814    1.0429    0.0000 C   0  0  0  0  0  0  0  0  0  0  0  0
    4.2213    2.3216    0.0000 C   0  0  0  0  0  0  0  0  0  0  0  0
    5.4814    3.5817    0.0000 C   0  0  0  0  0  0  0  0  0  0  0  0
    6.4814    3.5817    0.0000 C   0  0  0  0  0  0  0  0  0  0  0  0
    5.1153    0.5429    0.0000 C   0  0  0  0  0  0  0  0  0  0  0  0
    7.7414    2.3216    0.0000 C   0  0  0  0  0  0  0  0  0  0  0  0
    6.8474    0.5429    0.0000 C   0  0  0  0  0  0  0  0  0  0  0  0
    3.4782    2.9908    0.0000 C   0  0  0  0  0  0  0  0  0  0  0  0
    5.1153   -0.4571    0.0000 C   0  0  0  0  0  0  0  0  0  0  0  0
    6.8474   -0.4571    0.0000 C   0  0  0  0  0  0  0  0  0  0  0  0
    5.9814   -0.9571    0.0000 C   0  0  0  0  0  0  0  0  0  0  0  0
    8.4846    2.9908    0.0000 C   0  0  0  0  0  0  0  0  0  0  0  0
    9.4627    2.7829    0.0000 C   0  0  0  0  0  0  0  0  0  0  0  0
  1 12  1  0  0  0  0 
  2 17  1  0  0  0  0 
  3 11  1  0  0  0  0 
  4 14  1  0  0  0  0 
  5 20  1  0  0  0  0 
  6  7  1  0  0  0  0 
  6 10  1  0  0  0  0 
  6 11  1  0  0  0  0 
  7  8  1  0  0  0  0 
  7  9  1  0  0  0  0 
  8 12  1  0  0  0  0 
  8 14  1  0  0  0  0 
  9 13  1  0  0  0  0 
  9 15  1  0  0  0  0 
 10 16  1  0  0  0  0 
 11 12  1  0  0  0  0 
 13 17  1  0  0  0  0 
 14 20  1  0  0  0  0 
 15 18  1  0  0  0  0 
 17 19  1  0  0  0  0 
 18 19  1  0  0  0  0 
 20 21  1  0  0  0  0 
M  END
> <PUBCHEM_COMPOUND_CID>
3390483

$$$$
