
  CDK     0202151410

 15 16  0  0  0  0  0  0  0  0999 V2000
    7.2764   -1.5064    0.0000 N   0  0  0  0  0  0  0  0  0  0  0  0
    5.4641    1.2984    0.0000 N   0  0  0  0  0  0  0  0  0  0  0  0
    7.8600   -0.7016    0.0000 N   0  0  0  0  0  0  0  0  0  0  0  0
    5.4641   -1.7016    0.0000 N   0  0  0  0  0  0  0  0  0  0  0  0
    4.5981   -0.2016    0.0000 N   0  0  0  0  0  0  0  0  0  0  0  0
    7.5870   -2.4569    0.0000 C   0  0  0  0  0  0  0  0  0  0  0  0
    6.3301   -1.2016    0.0000 C   0  0  0  0  0  0  0  0  0  0  0  0
    6.3301   -0.2016    0.0000 C   0  0  0  0  0  0  0  0  0  0  0  0
    8.5655   -2.6631    0.0000 C   0  0  0  0  0  0  0  0  0  0  0  0
    5.4641    0.2984    0.0000 C   0  0  0  0  0  0  0  0  0  0  0  0
    4.5981    1.7984    0.0000 C   0  0  0  0  0  0  0  0  0  0  0  0
    4.5981    2.7984    0.0000 C   0  0  0  0  0  0  0  0  0  0  0  0
    7.2764    0.1031    0.0000 C   0  0  0  0  0  0  0  0  0  0  0  0
    3.7320    3.2984    0.0000 C   0  0  0  0  0  0  0  0  0  0  0  0
    4.5981   -1.2016    0.0000 C   0  0  0  0  0  0  0  0  0  0  0  0
  1  3  1  0  0  0  0 
  1  6  1  0  0  0  0 
  1  7  1  0  0  0  0 
  2 10  1  0  0  0  0 
  2 11  1  0  0  0  0 
  3 13  1  0  0  0  0 
  4  7  1  0  0  0  0 
  4 15  1  0  0  0  0 
  5 10  1  0  0  0  0 
  5 15  1  0  0  0  0 
  6  9  1  0  0  0  0 
  7  8  1  0  0  0  0 
  8 10  1  0  0  0  0 
  8 13  1  0  0  0  0 
 11 12  1  0  0  0  0 
 12 14  1  0  0  0  0 
M  END
> <PUBCHEM_COMPOUND_CID>
45543559

$$$$

  CDK     0202151410

 16 16  0  0  0  0  0  0  0  0999 V2000
    4.5981    0.7500    0.0000 O   0  0  0  0  0  0  0  0  0  0  0  0
    2.8660   -0.2500    0.0000 N   0  0  0  0  0  0  0  0  0  0  0  0
    2.8660   -2.2500    0.0000 N   0  0  0  0  0  0  0  0  0  0  0  0
    3.7321    2.2500    0.0000 N   0  0  0  0  0  0  0  0  0  0  0  0
    2.0000   -0.7500    0.0000 C   0  0  0  0  0  0  0  0  0  0  0  0
    3.7321   -0.7500    0.0000 C   0  0  0  0  0  0  0  0  0  0  0  0
    2.0000   -1.7500    0.0000 C   0  0  0  0  0  0  0  0  0  0  0  0
    3.7321   -1.7500    0.0000 C   0  0  0  0  0  0  0  0  0  0  0  0
    2.8660    0.7500    0.0000 C   0  0  0  0  0  0  0  0  0  0  0  0
    2.8660   -3.2500    0.0000 C   0  0  0  0  0  0  0  0  0  0  0  0
    3.7321    1.2500    0.0000 C   0  0  0  0  0  0  0  0  0  0  0  0
    3.7321   -3.7500    0.0000 C   0  0  0  0  0  0  0  0  0  0  0  0
    2.0000   -3.7500    0.0000 C   0  0  0  0  0  0  0  0  0  0  0  0
    3.7321   -4.7500    0.0000 C   0  0  0  0  0  0  0  0  0  0  0  0
    2.0000   -4.7500    0.0000 C   0  0  0  0  0  0  0  0  0  0  0  0
    4.5981    2.7500    0.0000 C   0  0  0  0  0  0  0  0  0  0  0  0
  1 11  1  0  0  0  0 
  2  5  1  0  0  0  0 
  2  6  1  0  0  0  0 
  2  9  1  0  0  0  0 
  3  7  1  0  0  0  0 
  3  8  1  0  0  0  0 
  3 10  1  0  0  0  0 
  4 11  1  0  0  0  0 
  4 16  1  0  0  0  0 
  5  7  1  0  0  0  0 
  6  8  1  0  0  0  0 
  9 11  1  0  0  0  0 
 10 12  1  0  0  0  0 
 10 13  1  0  0  0  0 
 12 14  1  0  0  0  0 
 13 15  1  0  0  0  0 
M  END
> <PUBCHEM_COMPOUND_CID>
27173023

$$$$
