
  CDK     0202151410

 15 15  0  0  0  0  0  0  0  0999 V2000
    5.4641   -1.4239    0.0000 O   0  0  0  0  0  0  0  0  0  0  0  0
    7.1962    1.5761    0.0000 N   0  0  0  0  0  0  0  0  0  0  0  0
    5.4641    0.5761    0.0000 N   0  0  0  0  0  0  0  0  0  0  0  0
    3.7320   -1.4239    0.0000 N   0  0  0  0  0  0  0  0  0  0  0  0
    6.3301    2.0761    0.0000 C   0  0  0  0  0  0  0  0  0  0  0  0
    7.1962    0.5761    0.0000 C   0  0  0  0  0  0  0  0  0  0  0  0
    5.4641    1.5761    0.0000 C   0  0  0  0  0  0  0  0  0  0  0  0
    6.3301    0.0761    0.0000 C   0  0  0  0  0  0  0  0  0  0  0  0
    8.0622    2.0761    0.0000 C   0  0  0  0  0  0  0  0  0  0  0  0
    4.5981    0.0761    0.0000 C   0  0  0  0  0  0  0  0  0  0  0  0
    8.0622    3.0761    0.0000 C   0  0  0  0  0  0  0  0  0  0  0  0
    4.5981   -0.9239    0.0000 C   0  0  0  0  0  0  0  0  0  0  0  0
    3.7320   -2.4239    0.0000 C   0  0  0  0  0  0  0  0  0  0  0  0
    2.8660   -2.9239    0.0000 C   0  0  0  0  0  0  0  0  0  0  0  0
    4.5981   -2.9239    0.0000 C   0  0  0  0  0  0  0  0  0  0  0  0
  1 12  1  0  0  0  0 
  2  5  1  0  0  0  0 
  2  6  1  0  0  0  0 
  2  9  1  0  0  0  0 
  3  7  1  0  0  0  0 
  3  8  1  0  0  0  0 
  3 10  1  0  0  0  0 
  4 12  1  0  0  0  0 
  4 13  1  0  0  0  0 
  5  7  1  0  0  0  0 
  6  8  1  0  0  0  0 
  9 11  1  0  0  0  0 
 10 12  1  0  0  0  0 
 13 14  1  0  0  0  0 
 13 15  1  0  0  0  0 
M  END
> <PUBCHEM_COMPOUND_CID>
45769398

$$$$

  CDK     0202151410

 15 15  0  0  0  0  0  0  0  0999 V2000
    6.0223   -2.0313    0.0000 S   0  0  0  0  0  0  0  0  0  0  0  0
    4.1701    4.0875    0.0000 O   0  0  0  0  0  0  0  0  0  0  0  0
    5.5267    0.7469    0.0000 O   0  0  0  0  0  0  0  0  0  0  0  0
    3.9444    1.4514    0.0000 N   0  0  0  0  0  0  0  0  0  0  0  0
    4.4042   -2.0313    0.0000 N   0  0  0  0  0  0  0  0  0  0  0  0
    4.1255   -0.2712    0.0000 C   0  0  0  0  0  0  0  0  0  0  0  0
    4.7132   -1.0802    0.0000 C   0  0  0  0  0  0  0  0  0  0  0  0
    4.3511    2.3649    0.0000 C   0  0  0  0  0  0  0  0  0  0  0  0
    5.2132   -3.6191    0.0000 C   0  0  0  0  0  0  0  0  0  0  0  0
    5.2132   -2.6191    0.0000 C   0  0  0  0  0  0  0  0  0  0  0  0
    4.5322    0.6424    0.0000 C   0  0  0  0  0  0  0  0  0  0  0  0
    3.7634    3.1739    0.0000 C   0  0  0  0  0  0  0  0  0  0  0  0
    5.7132   -1.0802    0.0000 C   0  0  0  0  0  0  0  0  0  0  0  0
    6.0793   -4.1191    0.0000 C   0  0  0  0  0  0  0  0  0  0  0  0
    4.3472   -4.1191    0.0000 C   0  0  0  0  0  0  0  0  0  0  0  0
  1 10  1  0  0  0  0 
  1 13  1  0  0  0  0 
  2 12  1  0  0  0  0 
  3 11  1  0  0  0  0 
  4  8  1  0  0  0  0 
  4 11  1  0  0  0  0 
  5  7  1  0  0  0  0 
  5 10  1  0  0  0  0 
  6  7  1  0  0  0  0 
  6 11  1  0  0  0  0 
  7 13  1  0  0  0  0 
  8 12  1  0  0  0  0 
  9 10  1  0  0  0  0 
  9 14  1  0  0  0  0 
  9 15  1  0  0  0  0 
M  END
> <PUBCHEM_COMPOUND_CID>
28542993

$$$$

  CDK     0202151410

 15 15  0  0  0  0  0  0  0  0999 V2000
    9.2765    2.3132    0.0000 S   0  0  0  0  0  0  0  0  0  0  0  0
    6.7021   -0.3740    0.0000 O   0  0  0  0  0  0  0  0  0  0  0  0
    9.5553    0.5531    0.0000 N   0  0  0  0  0  0  0  0  0  0  0  0
   10.8643    1.5042    0.0000 N   0  0  0  0  0  0  0  0  0  0  0  0
   11.1733    0.5531    0.0000 N   0  0  0  0  0  0  0  0  0  0  0  0
    6.1669    1.2733    0.0000 N   0  0  0  0  0  0  0  0  0  0  0  0
    8.6042    0.2441    0.0000 C   0  0  0  0  0  0  0  0  0  0  0  0
    7.8611    0.9132    0.0000 C   0  0  0  0  0  0  0  0  0  0  0  0
   10.3643   -0.0347    0.0000 C   0  0  0  0  0  0  0  0  0  0  0  0
   10.3643   -1.0347    0.0000 C   0  0  0  0  0  0  0  0  0  0  0  0
    9.8643    1.5042    0.0000 C   0  0  0  0  0  0  0  0  0  0  0  0
    6.9100    0.6042    0.0000 C   0  0  0  0  0  0  0  0  0  0  0  0
    9.4983   -1.5347    0.0000 C   0  0  0  0  0  0  0  0  0  0  0  0
   11.2303   -1.5347    0.0000 C   0  0  0  0  0  0  0  0  0  0  0  0
    5.2158    0.9643    0.0000 C   0  0  0  0  0  0  0  0  0  0  0  0
  1 11  1  0  0  0  0 
  2 12  1  0  0  0  0 
  3  7  1  0  0  0  0 
  3  9  1  0  0  0  0 
  3 11  1  0  0  0  0 
  4  5  1  0  0  0  0 
  4 11  1  0  0  0  0 
  5  9  1  0  0  0  0 
  6 12  1  0  0  0  0 
  6 15  1  0  0  0  0 
  7  8  1  0  0  0  0 
  8 12  1  0  0  0  0 
  9 10  1  0  0  0  0 
 10 13  1  0  0  0  0 
 10 14  1  0  0  0  0 
M  END
> <PUBCHEM_COMPOUND_CID>
32830389

$$$$

  CDK     0202151410

 15 15  0  0  0  0  0  0  0  0999 V2000
    3.7321   -2.8170    0.0000 N   0  0  0  0  0  0  0  0  0  0  0  0
    4.5981    1.6830    0.0000 N   0  0  0  0  0  0  0  0  0  0  0  0
    3.7321    1.1830    0.0000 C   0  0  2  0  0  0  0  0  0  0  0  0
    3.7321    0.1830    0.0000 C   0  0  0  0  0  0  0  0  0  0  0  0
    3.7321   -1.8170    0.0000 C   0  0  0  0  0  0  0  0  0  0  0  0
    5.4641    2.1830    0.0000 C   0  0  0  0  0  0  0  0  0  0  0  0
    2.8660    1.6830    0.0000 C   0  0  0  0  0  0  0  0  0  0  0  0
    4.5981   -0.3170    0.0000 C   0  0  0  0  0  0  0  0  0  0  0  0
    2.8660   -0.3170    0.0000 C   0  0  0  0  0  0  0  0  0  0  0  0
    4.5981   -1.3170    0.0000 C   0  0  0  0  0  0  0  0  0  0  0  0
    2.8660   -1.3170    0.0000 C   0  0  0  0  0  0  0  0  0  0  0  0
    5.4641    3.1830    0.0000 C   0  0  0  0  0  0  0  0  0  0  0  0
    6.3301    3.6830    0.0000 C   0  0  0  0  0  0  0  0  0  0  0  0
    4.5981    3.6830    0.0000 C   0  0  0  0  0  0  0  0  0  0  0  0
    6.3301    4.6830    0.0000 C   0  0  0  0  0  0  0  0  0  0  0  0
  1  5  1  0  0  0  0 
  3  2  1  6  0  0  0 
  2  6  1  0  0  0  0 
  3  4  1  0  0  0  0 
  3  7  1  0  0  0  0 
  4  8  1  0  0  0  0 
  4  9  1  0  0  0  0 
  5 10  1  0  0  0  0 
  5 11  1  0  0  0  0 
  6 12  1  0  0  0  0 
  8 10  1  0  0  0  0 
  9 11  1  0  0  0  0 
 12 13  1  0  0  0  0 
 12 14  1  0  0  0  0 
 13 15  1  0  0  0  0 
M  CHG  1   2   1
M  END
> <PUBCHEM_COMPOUND_CID>
36089241

$$$$

  CDK     0202151410

 15 15  0  0  0  0  0  0  0  0999 V2000
    8.9757    0.2853    0.0000 S   0  0  0  0  0  0  0  0  0  0  0  0
    9.5516    2.8080    0.0000 O   0  0  0  0  0  0  0  0  0  0  0  0
    3.7320   -0.8080    0.0000 O   0  0  0  0  0  0  0  0  0  0  0  0
    8.1667    1.6865    0.0000 N   0  0  0  0  0  0  0  0  0  0  0  0
    7.1962    0.1920    0.0000 N   0  0  0  0  0  0  0  0  0  0  0  0
    6.3301    0.6920    0.0000 N   0  0  0  0  0  0  0  0  0  0  0  0
    9.6448    1.0284    0.0000 C   0  0  2  0  0  0  0  0  0  0  0  0
   10.6394    0.9239    0.0000 C   0  0  0  0  0  0  0  0  0  0  0  0
    9.1448    1.8944    0.0000 C   0  0  0  0  0  0  0  0  0  0  0  0
    8.0622    0.6920    0.0000 C   0  0  0  0  0  0  0  0  0  0  0  0
    5.4641   -0.8080    0.0000 C   0  0  0  0  0  0  0  0  0  0  0  0
    4.5981   -1.3080    0.0000 C   0  0  0  0  0  0  0  0  0  0  0  0
    6.3301   -1.3080    0.0000 C   0  0  0  0  0  0  0  0  0  0  0  0
    5.4641    0.1920    0.0000 C   0  0  0  0  0  0  0  0  0  0  0  0
    4.5981   -2.3080    0.0000 C   0  0  0  0  0  0  0  0  0  0  0  0
  1  7  1  0  0  0  0 
  1 10  1  0  0  0  0 
  2  9  1  0  0  0  0 
  3 12  1  0  0  0  0 
  4  9  1  0  0  0  0 
  4 10  1  0  0  0  0 
  5  6  1  0  0  0  0 
  5 10  1  0  0  0  0 
  6 14  1  0  0  0  0 
  7  8  1  1  0  0  0 
  7  9  1  0  0  0  0 
 11 12  1  0  0  0  0 
 11 13  1  0  0  0  0 
 11 14  1  0  0  0  0 
 12 15  1  0  0  0  0 
M  END
> <PUBCHEM_COMPOUND_CID>
34637812

$$$$

  CDK     0202151410

 15 15  0  0  0  0  0  0  0  0999 V2000
    6.0223   -2.0313    0.0000 S   0  0  0  0  0  0  0  0  0  0  0  0
    4.1701    4.0875    0.0000 O   0  0  0  0  0  0  0  0  0  0  0  0
    5.5267    0.7469    0.0000 O   0  0  0  0  0  0  0  0  0  0  0  0
    3.9444    1.4514    0.0000 N   0  0  0  0  0  0  0  0  0  0  0  0
    4.4042   -2.0313    0.0000 N   0  0  0  0  0  0  0  0  0  0  0  0
    4.1255   -0.2712    0.0000 C   0  0  0  0  0  0  0  0  0  0  0  0
    4.7132   -1.0802    0.0000 C   0  0  0  0  0  0  0  0  0  0  0  0
    4.3511    2.3649    0.0000 C   0  0  0  0  0  0  0  0  0  0  0  0
    5.2132   -3.6191    0.0000 C   0  0  0  0  0  0  0  0  0  0  0  0
    5.2132   -2.6191    0.0000 C   0  0  0  0  0  0  0  0  0  0  0  0
    4.5322    0.6424    0.0000 C   0  0  0  0  0  0  0  0  0  0  0  0
    3.7634    3.1739    0.0000 C   0  0  0  0  0  0  0  0  0  0  0  0
    5.7132   -1.0802    0.0000 C   0  0  0  0  0  0  0  0  0  0  0  0
    6.0793   -4.1191    0.0000 C   0  0  0  0  0  0  0  0  0  0  0  0
    4.3472   -4.1191    0.0000 C   0  0  0  0  0  0  0  0  0  0  0  0
  1 10  1  0  0  0  0 
  1 13  1  0  0  0  0 
  2 12  1  0  0  0  0 
  3 11  1  0  0  0  0 
  4  8  1  0  0  0  0 
  4 11  1  0  0  0  0 
  5  7  1  0  0  0  0 
  5 10  1  0  0  0  0 
  6  7  1  0  0  0  0 
  6 11  1  0  0  0  0 
  7 13  1  0  0  0  0 
  8 12  1  0  0  0  0 
  9 10  1  0  0  0  0 
  9 14  1  0  0  0  0 
  9 15  1  0  0  0  0 
M  END
> <PUBCHEM_COMPOUND_CID>
28542993

$$$$

  CDK     0202151410

 15 16  0  0  0  0  0  0  0  0999 V2000
    8.9942    0.4585    0.0000 O   0  0  0  0  0  0  0  0  0  0  0  0
    5.4641   -0.5173    0.0000 N   0  0  0  0  0  0  0  0  0  0  0  0
    7.2241    0.4480    0.0000 N   0  0  0  0  0  0  0  0  0  0  0  0
    4.5981    0.9827    0.0000 N   0  0  0  0  0  0  0  0  0  0  0  0
    8.1301    2.0035    0.0000 N   0  0  0  0  0  0  0  0  0  0  0  0
    5.4641    2.4827    0.0000 N   0  0  0  0  0  0  0  0  0  0  0  0
    9.8622    0.9552    0.0000 C   0  0  0  0  0  0  0  0  0  0  0  0
    6.3301    0.9827    0.0000 C   0  0  0  0  0  0  0  0  0  0  0  0
    4.5981   -1.0173    0.0000 C   0  0  0  0  0  0  0  0  0  0  0  0
    5.4641    0.4827    0.0000 C   0  0  0  0  0  0  0  0  0  0  0  0
    6.3301    1.9827    0.0000 C   0  0  0  0  0  0  0  0  0  0  0  0
    3.7320   -0.5173    0.0000 C   0  0  0  0  0  0  0  0  0  0  0  0
    8.1301    0.9619    0.0000 C   0  0  0  0  0  0  0  0  0  0  0  0
    7.2241    2.5173    0.0000 C   0  0  0  0  0  0  0  0  0  0  0  0
    4.5981    1.9827    0.0000 C   0  0  0  0  0  0  0  0  0  0  0  0
  1  7  1  0  0  0  0 
  1 13  1  0  0  0  0 
  2  9  1  0  0  0  0 
  2 10  1  0  0  0  0 
  3  8  1  0  0  0  0 
  3 13  1  0  0  0  0 
  4 10  1  0  0  0  0 
  4 15  1  0  0  0  0 
  5 13  1  0  0  0  0 
  5 14  1  0  0  0  0 
  6 11  1  0  0  0  0 
  6 15  1  0  0  0  0 
  8 10  1  0  0  0  0 
  8 11  1  0  0  0  0 
  9 12  1  0  0  0  0 
 11 14  1  0  0  0  0 
M  END
> <PUBCHEM_COMPOUND_CID>
19709223

$$$$
