30129100
  CDK     1017141946

 60 61  0  0  0  0  0  0  0  0999 V2000
    7.1962    4.0000    0.0000 S   0  0  0  0  0  0  0  0  0  0  0  0
    2.8660   -5.5000    0.0000 O   0  0  0  0  0  0  0  0  0  0  0  0
    6.3301   -0.5000    0.0000 O   0  0  0  0  0  0  0  0  0  0  0  0
    7.6962    3.1340    0.0000 O   0  0  0  0  0  0  0  0  0  0  0  0
    6.6962    4.8660    0.0000 O   0  0  0  0  0  0  0  0  0  0  0  0
    6.3301   -2.5000    0.0000 O   0  0  0  0  0  0  0  0  0  0  0  0
    6.3301    3.5000    0.0000 N   0  0  3  0  0  0  0  0  0  0  0  0
    4.5981   -2.5000    0.0000 N   0  0  0  0  0  0  0  0  0  0  0  0
    5.4641    4.0000    0.0000 C   0  0  0  0  0  0  0  0  0  0  0  0
    6.3301    2.5000    0.0000 C   0  0  0  0  0  0  0  0  0  0  0  0
    5.4641    5.0000    0.0000 C   0  0  0  0  0  0  0  0  0  0  0  0
    3.7320   -4.0000    0.0000 C   0  0  0  0  0  0  0  0  0  0  0  0
    4.5981   -3.5000    0.0000 C   0  0  0  0  0  0  0  0  0  0  0  0
    3.7320   -5.0000    0.0000 C   0  0  0  0  0  0  0  0  0  0  0  0
    5.4641    2.0000    0.0000 C   0  0  0  0  0  0  0  0  0  0  0  0
    7.1962    2.0000    0.0000 C   0  0  0  0  0  0  0  0  0  0  0  0
    8.0622    4.5000    0.0000 C   0  0  0  0  0  0  0  0  0  0  0  0
    2.8660   -6.5000    0.0000 C   0  0  0  0  0  0  0  0  0  0  0  0
    6.3301    0.5000    0.0000 C   0  0  0  0  0  0  0  0  0  0  0  0
    5.4641    1.0000    0.0000 C   0  0  0  0  0  0  0  0  0  0  0  0
    7.1962    1.0000    0.0000 C   0  0  0  0  0  0  0  0  0  0  0  0
    6.3301    5.5000    0.0000 C   0  0  0  0  0  0  0  0  0  0  0  0
    4.5981    5.5000    0.0000 C   0  0  0  0  0  0  0  0  0  0  0  0
    5.4641   -1.0000    0.0000 C   0  0  0  0  0  0  0  0  0  0  0  0
    5.4641   -2.0000    0.0000 C   0  0  0  0  0  0  0  0  0  0  0  0
    2.0000   -7.0000    0.0000 C   0  0  0  0  0  0  0  0  0  0  0  0
    3.7320   -7.0000    0.0000 C   0  0  0  0  0  0  0  0  0  0  0  0
    6.3301    6.5000    0.0000 C   0  0  0  0  0  0  0  0  0  0  0  0
    4.5981    6.5000    0.0000 C   0  0  0  0  0  0  0  0  0  0  0  0
    5.4641    7.0000    0.0000 C   0  0  0  0  0  0  0  0  0  0  0  0
    4.8535    4.1077    0.0000 H   0  0  0  0  0  0  0  0  0  0  0  0
    5.2520    3.4174    0.0000 H   0  0  0  0  0  0  0  0  0  0  0  0
    3.5200   -3.4174    0.0000 H   0  0  0  0  0  0  0  0  0  0  0  0
    3.1215   -4.1077    0.0000 H   0  0  0  0  0  0  0  0  0  0  0  0
    4.8101   -4.0826    0.0000 H   0  0  0  0  0  0  0  0  0  0  0  0
    5.2087   -3.3923    0.0000 H   0  0  0  0  0  0  0  0  0  0  0  0
    3.9441   -5.5826    0.0000 H   0  0  0  0  0  0  0  0  0  0  0  0
    4.3426   -4.8923    0.0000 H   0  0  0  0  0  0  0  0  0  0  0  0
    4.9272    2.3100    0.0000 H   0  0  0  0  0  0  0  0  0  0  0  0
    7.7331    2.3100    0.0000 H   0  0  0  0  0  0  0  0  0  0  0  0
    8.3722    3.9631    0.0000 H   0  0  0  0  0  0  0  0  0  0  0  0
    8.5991    4.8100    0.0000 H   0  0  0  0  0  0  0  0  0  0  0  0
    7.7522    5.0369    0.0000 H   0  0  0  0  0  0  0  0  0  0  0  0
    3.4030   -6.1900    0.0000 H   0  0  0  0  0  0  0  0  0  0  0  0
    4.9272    0.6900    0.0000 H   0  0  0  0  0  0  0  0  0  0  0  0
    7.7331    0.6900    0.0000 H   0  0  0  0  0  0  0  0  0  0  0  0
    6.8671    5.1900    0.0000 H   0  0  0  0  0  0  0  0  0  0  0  0
    4.0611    5.1900    0.0000 H   0  0  0  0  0  0  0  0  0  0  0  0
    4.0611   -2.1900    0.0000 H   0  0  0  0  0  0  0  0  0  0  0  0
    5.2520   -0.4174    0.0000 H   0  0  0  0  0  0  0  0  0  0  0  0
    4.8535   -1.1077    0.0000 H   0  0  0  0  0  0  0  0  0  0  0  0
    3.4220   -7.5369    0.0000 H   0  0  0  0  0  0  0  0  0  0  0  0
    1.6900   -6.4631    0.0000 H   0  0  0  0  0  0  0  0  0  0  0  0
    1.4631   -7.3100    0.0000 H   0  0  0  0  0  0  0  0  0  0  0  0
    2.3100   -7.5369    0.0000 H   0  0  0  0  0  0  0  0  0  0  0  0
    4.2690   -7.3100    0.0000 H   0  0  0  0  0  0  0  0  0  0  0  0
    4.0420   -6.4631    0.0000 H   0  0  0  0  0  0  0  0  0  0  0  0
    6.8671    6.8100    0.0000 H   0  0  0  0  0  0  0  0  0  0  0  0
    4.0611    6.8100    0.0000 H   0  0  0  0  0  0  0  0  0  0  0  0
    5.4641    7.6200    0.0000 H   0  0  0  0  0  0  0  0  0  0  0  0
  1  4  2  0  0  0  0 
  1  5  2  0  0  0  0 
  1  7  1  0  0  0  0 
  1 17  1  0  0  0  0 
  2 14  1  0  0  0  0 
  2 18  1  0  0  0  0 
  3 19  1  0  0  0  0 
  3 24  1  0  0  0  0 
  6 25  2  0  0  0  0 
  7  9  1  0  0  0  0 
  7 10  1  0  0  0  0 
  8 13  1  0  0  0  0 
  8 25  1  0  0  0  0 
  8 49  1  0  0  0  0 
  9 11  1  0  0  0  0 
  9 31  1  0  0  0  0 
  9 32  1  0  0  0  0 
 10 15  2  0  0  0  0 
 10 16  1  0  0  0  0 
 11 22  2  0  0  0  0 
 11 23  1  0  0  0  0 
 12 13  1  0  0  0  0 
 12 14  1  0  0  0  0 
 12 33  1  0  0  0  0 
 12 34  1  0  0  0  0 
 13 35  1  0  0  0  0 
 13 36  1  0  0  0  0 
 14 37  1  0  0  0  0 
 14 38  1  0  0  0  0 
 15 20  1  0  0  0  0 
 15 39  1  0  0  0  0 
 16 21  2  0  0  0  0 
 16 40  1  0  0  0  0 
 17 41  1  0  0  0  0 
 17 42  1  0  0  0  0 
 17 43  1  0  0  0  0 
 18 26  1  0  0  0  0 
 18 27  1  0  0  0  0 
 18 44  1  0  0  0  0 
 19 20  2  0  0  0  0 
 19 21  1  0  0  0  0 
 20 45  1  0  0  0  0 
 21 46  1  0  0  0  0 
 22 28  1  0  0  0  0 
 22 47  1  0  0  0  0 
 23 29  2  0  0  0  0 
 23 48  1  0  0  0  0 
 24 25  1  0  0  0  0 
 24 50  1  0  0  0  0 
 24 51  1  0  0  0  0 
 26 53  1  0  0  0  0 
 26 54  1  0  0  0  0 
 26 55  1  0  0  0  0 
 27 52  1  0  0  0  0 
 27 56  1  0  0  0  0 
 27 57  1  0  0  0  0 
 28 30  2  0  0  0  0 
 28 58  1  0  0  0  0 
 29 30  1  0  0  0  0 
 29 59  1  0  0  0  0 
 30 60  1  0  0  0  0 
M  END
> <cdk:Title>
30129100

> <cdk:Remark>
null

> <PUBCHEM_COMPOUND_CID>
30129100

> <PUBCHEM_COMPOUND_CANONICALIZED>
1

> <PUBCHEM_CACTVS_COMPLEXITY>
591

> <PUBCHEM_CACTVS_HBOND_ACCEPTOR>
6

> <PUBCHEM_CACTVS_HBOND_DONOR>
1

> <PUBCHEM_CACTVS_ROTATABLE_BOND>
12

> <PUBCHEM_CACTVS_SUBSKEYS>
AAADceB7OABAAAAAAAAAAAAAAAAAAAAAAAAwYAAAAAAAAAABQAAAHgQQQAAADBzhmAayxoLABAKIAiVSUHKCCAAhIgAIiIBObIgOJiLEsZ+HOCjm1hHY6AewwAAOAEAAAAAAAAAAgAAAAAAAAAAAAAAAAA==

> <PUBCHEM_IUPAC_OPENEYE_NAME>
2-[4-[benzyl(methylsulfonyl)amino]phenoxy]-N-(3-isopropoxypropyl)acetamide

> <PUBCHEM_IUPAC_CAS_NAME>
2-[4-[methylsulfonyl-(phenylmethyl)amino]phenoxy]-N-(3-propan-2-yloxypropyl)acetamide

> <PUBCHEM_IUPAC_NAME>
2-[4-[benzyl(methylsulfonyl)amino]phenoxy]-N-(3-propan-2-yloxypropyl)acetamide

> <PUBCHEM_IUPAC_SYSTEMATIC_NAME>
2-[4-[methylsulfonyl-(phenylmethyl)amino]phenoxy]-N-(3-propan-2-yloxypropyl)ethanamide

> <PUBCHEM_IUPAC_TRADITIONAL_NAME>
2-[4-[benzyl(mesyl)amino]phenoxy]-N-(3-isopropoxypropyl)acetamide

> <PUBCHEM_IUPAC_INCHI>
InChI=1S/C22H30N2O5S/c1-18(2)28-15-7-14-23-22(25)17-29-21-12-10-20(11-13-21)24(30(3,26)27)16-19-8-5-4-6-9-19/h4-6,8-13,18H,7,14-17H2,1-3H3,(H,23,25)

> <PUBCHEM_IUPAC_INCHIKEY>
ZZZPJUNFDCQSCM-UHFFFAOYSA-N

> <PUBCHEM_XLOGP3_AA>
2.9

> <PUBCHEM_EXACT_MASS>
434.187543

> <PUBCHEM_MOLECULAR_FORMULA>
C22H30N2O5S

> <PUBCHEM_MOLECULAR_WEIGHT>
434.549

> <PUBCHEM_OPENEYE_CAN_SMILES>
CC(C)OCCCNC(=O)COC1=CC=C(C=C1)N(CC2=CC=CC=C2)S(=O)(=O)C

> <PUBCHEM_OPENEYE_ISO_SMILES>
CC(C)OCCCNC(=O)COC1=CC=C(C=C1)N(CC2=CC=CC=C2)S(=O)(=O)C

> <PUBCHEM_CACTVS_TPSA>
93.3

> <PUBCHEM_MONOISOTOPIC_WEIGHT>
434.187543

> <PUBCHEM_TOTAL_CHARGE>
0

> <PUBCHEM_HEAVY_ATOM_COUNT>
30

> <PUBCHEM_ATOM_DEF_STEREO_COUNT>
0

> <PUBCHEM_ATOM_UDEF_STEREO_COUNT>
0

> <PUBCHEM_BOND_DEF_STEREO_COUNT>
0

> <PUBCHEM_BOND_UDEF_STEREO_COUNT>
0

> <PUBCHEM_ISOTOPIC_ATOM_COUNT>
0

> <PUBCHEM_COMPONENT_COUNT>
1

> <PUBCHEM_CACTVS_TAUTO_COUNT>
2

> <PUBCHEM_COORDINATE_TYPE>
1

> <PUBCHEM_BONDANNOTATIONS>
10  15  8

$$$$
