
  CDK     0202151410

 13 13  0  0  0  0  0  0  0  0999 V2000
    3.3803    1.8856    0.0000 C   0  0  2  0  0  0  0  0  0  0  0  0
    3.6727    0.9292    0.0000 C   0  0  1  0  0  0  0  0  0  0  0  0
    4.0822    2.8933    0.0000 C   0  0  0  0  0  0  0  0  0  0  0  0
    2.2924    0.3719    0.0000 C   0  0  0  0  0  0  0  0  0  0  0  0
    5.4232    1.6456    0.0000 C   0  0  0  0  0  0  0  0  0  0  0  0
    4.9232    0.1067    0.0000 C   0  0  0  0  0  0  0  0  0  0  0  0
    5.7322    0.6945    0.0000 C   0  0  0  0  0  0  0  0  0  0  0  0
    6.6833    0.3855    0.0000 C   0  0  0  0  0  0  0  0  0  0  0  0
    4.9232   -0.8933    0.0000 C   0  0  0  0  0  0  0  0  0  0  0  0
    5.7892   -1.3933    0.0000 C   0  0  0  0  0  0  0  0  0  0  0  0
    4.0572   -1.3933    0.0000 C   0  0  0  0  0  0  0  0  0  0  0  0
    5.7892   -2.3933    0.0000 C   0  0  0  0  0  0  0  0  0  0  0  0
    6.7354   -1.0885    0.0000 C   0  0  0  0  0  0  0  0  0  0  0  0
  1  3  1  0  0  0  0 
  1  5  1  0  0  0  0 
  2  3  1  0  0  0  0 
  2  4  1  0  0  0  0 
  2  6  1  0  0  0  0 
  5  7  1  0  0  0  0 
  6  7  1  0  0  0  0 
  6  9  1  0  0  0  0 
  7  8  1  0  0  0  0 
  9 10  1  0  0  0  0 
  9 11  1  0  0  0  0 
 10 12  1  0  0  0  0 
 10 13  1  0  0  0  0 
M  END
> <PUBCHEM_COMPOUND_CID>
69874902

$$$$
