61808089
  CDK     0101151218

 36 36  0  0  0  0  0  0  0  0999 V2000
    3.7320   -2.6900    0.0000 O   0  0  0  0  0  0  0  0  0  0  0  0
    7.1962   -2.6900    0.0000 O   0  0  0  0  0  0  0  0  0  0  0  0
    2.8660    1.8100    0.0000 N   0  0  0  0  0  0  0  0  0  0  0  0
    3.7320   -0.6900    0.0000 N   0  0  0  0  0  0  0  0  0  0  0  0
    5.4641   -0.6900    0.0000 N   0  0  0  0  0  0  0  0  0  0  0  0
    5.4641   -2.6900    0.0000 N   0  0  0  0  0  0  0  0  0  0  0  0
    6.3301   -1.1900    0.0000 N   0  0  0  0  0  0  0  0  0  0  0  0
    2.8660    0.8100    0.0000 C   0  0  0  0  0  0  0  0  0  0  0  0
    3.7320    0.3100    0.0000 C   0  0  3  0  0  0  0  0  0  0  0  0
    2.0000    2.3100    0.0000 C   0  0  0  0  0  0  0  0  0  0  0  0
    3.7320    2.3100    0.0000 C   0  0  0  0  0  0  0  0  0  0  0  0
    4.5981    0.8100    0.0000 C   0  0  0  0  0  0  0  0  0  0  0  0
    3.7320    3.3100    0.0000 C   0  0  0  0  0  0  0  0  0  0  0  0
    2.0000    3.3100    0.0000 C   0  0  0  0  0  0  0  0  0  0  0  0
    4.5981   -1.1900    0.0000 C   0  0  0  0  0  0  0  0  0  0  0  0
    4.5981   -2.1900    0.0000 C   0  0  0  0  0  0  0  0  0  0  0  0
    6.3301   -2.1900    0.0000 C   0  0  0  0  0  0  0  0  0  0  0  0
    2.2554    0.9177    0.0000 H   0  0  0  0  0  0  0  0  0  0  0  0
    2.6540    0.2274    0.0000 H   0  0  0  0  0  0  0  0  0  0  0  0
    4.2690    0.0000    0.0000 H   0  0  0  0  0  0  0  0  0  0  0  0
    1.3894    2.4177    0.0000 H   0  0  0  0  0  0  0  0  0  0  0  0
    1.7880    1.7274    0.0000 H   0  0  0  0  0  0  0  0  0  0  0  0
    3.9441    1.7274    0.0000 H   0  0  0  0  0  0  0  0  0  0  0  0
    4.3426    2.4177    0.0000 H   0  0  0  0  0  0  0  0  0  0  0  0
    4.9081    0.2731    0.0000 H   0  0  0  0  0  0  0  0  0  0  0  0
    5.1350    1.1200    0.0000 H   0  0  0  0  0  0  0  0  0  0  0  0
    4.2881    1.3469    0.0000 H   0  0  0  0  0  0  0  0  0  0  0  0
    3.1951   -1.0000    0.0000 H   0  0  0  0  0  0  0  0  0  0  0  0
    2.6200    3.3100    0.0000 H   0  0  0  0  0  0  0  0  0  0  0  0
    4.3520    3.3100    0.0000 H   0  0  0  0  0  0  0  0  0  0  0  0
    3.7320    3.9300    0.0000 H   0  0  0  0  0  0  0  0  0  0  0  0
    3.1120    3.3100    0.0000 H   0  0  0  0  0  0  0  0  0  0  0  0
    2.0000    3.9300    0.0000 H   0  0  0  0  0  0  0  0  0  0  0  0
    1.3800    3.3100    0.0000 H   0  0  0  0  0  0  0  0  0  0  0  0
    5.4641   -3.3100    0.0000 H   0  0  0  0  0  0  0  0  0  0  0  0
    6.8671   -0.8800    0.0000 H   0  0  0  0  0  0  0  0  0  0  0  0
  1 16  2  0  0  0  0 
  2 17  2  0  0  0  0 
  3  8  1  0  0  0  0 
  3 10  1  0  0  0  0 
  3 11  1  0  0  0  0 
  4  9  1  0  0  0  0 
  4 15  1  0  0  0  0 
  4 28  1  0  0  0  0 
  5  7  1  0  0  0  0 
  5 15  2  0  0  0  0 
  6 16  1  0  0  0  0 
  6 17  1  0  0  0  0 
  6 35  1  0  0  0  0 
  7 17  1  0  0  0  0 
  7 36  1  0  0  0  0 
  8  9  1  0  0  0  0 
  8 18  1  0  0  0  0 
  8 19  1  0  0  0  0 
  9 12  1  0  0  0  0 
  9 20  1  0  0  0  0 
 10 14  1  0  0  0  0 
 10 21  1  0  0  0  0 
 10 22  1  0  0  0  0 
 11 13  1  0  0  0  0 
 11 23  1  0  0  0  0 
 11 24  1  0  0  0  0 
 12 25  1  0  0  0  0 
 12 26  1  0  0  0  0 
 12 27  1  0  0  0  0 
 13 30  1  0  0  0  0 
 13 31  1  0  0  0  0 
 13 32  1  0  0  0  0 
 14 29  1  0  0  0  0 
 14 33  1  0  0  0  0 
 14 34  1  0  0  0  0 
 15 16  1  0  0  0  0 
M  END
> <cdk:Title>
61808089

> <cdk:Remark>
null

> <PUBCHEM_COMPOUND_CID>
61808089

> <PUBCHEM_COMPOUND_CANONICALIZED>
1

> <PUBCHEM_CACTVS_COMPLEXITY>
325

> <PUBCHEM_CACTVS_HBOND_ACCEPTOR>
4

> <PUBCHEM_CACTVS_HBOND_DONOR>
3

> <PUBCHEM_CACTVS_ROTATABLE_BOND>
6

> <PUBCHEM_CACTVS_SUBSKEYS>
AAADceBzsAAAAAAAAAAAAAAAAAAAAAAAAAAgAAAAAAAAAAAAAAAAHgAYAAAACCjBgAQDAAPiAAAoAAMwMAAQAAAAAAAHAICIAACAQAAACCAUAAAQHSKAAAAAAAAAAAAAAAAAAAAAAAAAAAAAAAAAAAAAAA==

> <PUBCHEM_IUPAC_OPENEYE_NAME>
6-[[2-(diethylamino)-1-methyl-ethyl]amino]-2H-1,2,4-triazine-3,5-dione

> <PUBCHEM_IUPAC_CAS_NAME>
6-[1-(diethylamino)propan-2-ylamino]-2H-1,2,4-triazine-3,5-dione

> <PUBCHEM_IUPAC_NAME>
6-[1-(diethylamino)propan-2-ylamino]-2H-1,2,4-triazine-3,5-dione

> <PUBCHEM_IUPAC_SYSTEMATIC_NAME>
6-[1-(diethylamino)propan-2-ylamino]-2H-1,2,4-triazine-3,5-dione

> <PUBCHEM_IUPAC_TRADITIONAL_NAME>
6-[[2-(diethylamino)-1-methyl-ethyl]amino]-2H-1,2,4-triazine-3,5-quinone

> <PUBCHEM_IUPAC_INCHI>
InChI=1S/C10H19N5O2/c1-4-15(5-2)6-7(3)11-8-9(16)12-10(17)14-13-8/h7H,4-6H2,1-3H3,(H,11,13)(H2,12,14,16,17)

> <PUBCHEM_IUPAC_INCHIKEY>
VHIQGWZJQKIATQ-UHFFFAOYSA-N

> <PUBCHEM_XLOGP3_AA>
0.1

> <PUBCHEM_EXACT_MASS>
241.153875

> <PUBCHEM_MOLECULAR_FORMULA>
C10H19N5O2

> <PUBCHEM_MOLECULAR_WEIGHT>
241.29016

> <PUBCHEM_OPENEYE_CAN_SMILES>
CCN(CC)CC(C)NC1=NNC(=O)NC1=O

> <PUBCHEM_OPENEYE_ISO_SMILES>
CCN(CC)CC(C)NC1=NNC(=O)NC1=O

> <PUBCHEM_CACTVS_TPSA>
85.8

> <PUBCHEM_MONOISOTOPIC_WEIGHT>
241.153875

> <PUBCHEM_TOTAL_CHARGE>
0

> <PUBCHEM_HEAVY_ATOM_COUNT>
17

> <PUBCHEM_ATOM_DEF_STEREO_COUNT>
0

> <PUBCHEM_ATOM_UDEF_STEREO_COUNT>
1

> <PUBCHEM_BOND_DEF_STEREO_COUNT>
0

> <PUBCHEM_BOND_UDEF_STEREO_COUNT>
0

> <PUBCHEM_ISOTOPIC_ATOM_COUNT>
0

> <PUBCHEM_COMPONENT_COUNT>
1

> <PUBCHEM_CACTVS_TAUTO_COUNT>
14

> <PUBCHEM_COORDINATE_TYPE>
1

> <PUBCHEM_BONDANNOTATIONS>
15  16  8

$$$$
