45841961
  CDK     0202151413

 57 60  0  0  0  0  0  0  0  0999 V2000
    8.8691    3.6201    0.0000 S   0  0  0  0  0  0  0  0  0  0  0  0
    3.6730    0.6201    0.0000 O   0  0  0  0  0  0  0  0  0  0  0  0
    8.3691    4.4861    0.0000 O   0  0  0  0  0  0  0  0  0  0  0  0
    9.3691    2.7541    0.0000 O   0  0  0  0  0  0  0  0  0  0  0  0
    4.5390   -0.8799    0.0000 N   0  0  0  0  0  0  0  0  0  0  0  0
    9.7352    4.1201    0.0000 N   0  0  0  0  0  0  0  0  0  0  0  0
    3.6730   -2.3799    0.0000 C   0  0  0  0  0  0  0  0  0  0  0  0
    2.9819   -4.2633    0.0000 C   0  0  0  0  0  0  0  0  0  0  0  0
    2.8368   -3.8282    0.0000 C   0  0  0  0  0  0  0  0  0  0  0  0
    4.5092   -3.8282    0.0000 C   0  0  0  0  0  0  0  0  0  0  0  0
    4.5092   -2.8627    0.0000 C   0  0  0  0  0  0  0  0  0  0  0  0
    2.8368   -2.8627    0.0000 C   0  0  0  0  0  0  0  0  0  0  0  0
    2.9819   -3.2180    0.0000 C   0  0  0  0  0  0  0  0  0  0  0  0
    3.6730   -4.1310    0.0000 C   0  0  0  0  0  0  0  0  0  0  0  0
    3.8876   -4.7401    0.0000 C   0  0  0  0  0  0  0  0  0  0  0  0
    2.0000   -4.3110    0.0000 C   0  0  0  0  0  0  0  0  0  0  0  0
    3.6730   -1.3799    0.0000 C   0  0  3  0  0  0  0  0  0  0  0  0
    2.8070   -0.8799    0.0000 C   0  0  0  0  0  0  0  0  0  0  0  0
    4.5390    0.1201    0.0000 C   0  0  0  0  0  0  0  0  0  0  0  0
    5.4050    0.6201    0.0000 C   0  0  0  0  0  0  0  0  0  0  0  0
    5.4050    1.6201    0.0000 C   0  0  0  0  0  0  0  0  0  0  0  0
    6.2711    2.1201    0.0000 C   0  0  0  0  0  0  0  0  0  0  0  0
    7.1371    1.6201    0.0000 C   0  0  0  0  0  0  0  0  0  0  0  0
    6.2711    3.1201    0.0000 C   0  0  0  0  0  0  0  0  0  0  0  0
    8.0031    2.1201    0.0000 C   0  0  0  0  0  0  0  0  0  0  0  0
    7.1371    3.6201    0.0000 C   0  0  0  0  0  0  0  0  0  0  0  0
    8.0031    3.1201    0.0000 C   0  0  0  0  0  0  0  0  0  0  0  0
    5.1016   -4.0109    0.0000 H   0  0  0  0  0  0  0  0  0  0  0  0
    2.8912   -4.4458    0.0000 H   0  0  0  0  0  0  0  0  0  0  0  0
    2.8478   -4.8686    0.0000 H   0  0  0  0  0  0  0  0  0  0  0  0
    2.6383   -2.7020    0.0000 H   0  0  0  0  0  0  0  0  0  0  0  0
    2.3885   -3.3975    0.0000 H   0  0  0  0  0  0  0  0  0  0  0  0
    2.6247   -2.2801    0.0000 H   0  0  0  0  0  0  0  0  0  0  0  0
    2.2262   -2.9703    0.0000 H   0  0  0  0  0  0  0  0  0  0  0  0
    5.1198   -2.9704    0.0000 H   0  0  0  0  0  0  0  0  0  0  0  0
    4.7212   -2.2801    0.0000 H   0  0  0  0  0  0  0  0  0  0  0  0
    1.5188   -3.9201    0.0000 H   0  0  0  0  0  0  0  0  0  0  0  0
    1.8068   -4.9001    0.0000 H   0  0  0  0  0  0  0  0  0  0  0  0
    3.3030   -4.6285    0.0000 H   0  0  0  0  0  0  0  0  0  0  0  0
    4.0430   -4.6285    0.0000 H   0  0  0  0  0  0  0  0  0  0  0  0
    3.5782   -5.2774    0.0000 H   0  0  0  0  0  0  0  0  0  0  0  0
    4.4127   -5.0697    0.0000 H   0  0  0  0  0  0  0  0  0  0  0  0
    3.6730   -0.7599    0.0000 H   0  0  0  0  0  0  0  0  0  0  0  0
    3.1170   -0.3430    0.0000 H   0  0  0  0  0  0  0  0  0  0  0  0
    2.2700   -0.5699    0.0000 H   0  0  0  0  0  0  0  0  0  0  0  0
    2.4970   -1.4168    0.0000 H   0  0  0  0  0  0  0  0  0  0  0  0
    5.0760   -1.1899    0.0000 H   0  0  0  0  0  0  0  0  0  0  0  0
    5.6171    0.0375    0.0000 H   0  0  0  0  0  0  0  0  0  0  0  0
    6.0156    0.7278    0.0000 H   0  0  0  0  0  0  0  0  0  0  0  0
    5.1930    2.2027    0.0000 H   0  0  0  0  0  0  0  0  0  0  0  0
    4.7945    1.5124    0.0000 H   0  0  0  0  0  0  0  0  0  0  0  0
    7.1371    1.0001    0.0000 H   0  0  0  0  0  0  0  0  0  0  0  0
    5.7341    3.4301    0.0000 H   0  0  0  0  0  0  0  0  0  0  0  0
    8.5401    1.8101    0.0000 H   0  0  0  0  0  0  0  0  0  0  0  0
    7.1371    4.2401    0.0000 H   0  0  0  0  0  0  0  0  0  0  0  0
    9.7352    4.7401    0.0000 H   0  0  0  0  0  0  0  0  0  0  0  0
   10.2721    3.8101    0.0000 H   0  0  0  0  0  0  0  0  0  0  0  0
  1  3  2  0  0  0  0 
  1  4  2  0  0  0  0 
  1  6  1  0  0  0  0 
  1 27  1  0  0  0  0 
  2 19  2  0  0  0  0 
  5 17  1  0  0  0  0 
  5 19  1  0  0  0  0 
  5 47  1  0  0  0  0 
  6 56  1  0  0  0  0 
  6 57  1  0  0  0  0 
  7 11  1  0  0  0  0 
  7 12  1  0  0  0  0 
  7 13  1  0  0  0  0 
  7 17  1  0  0  0  0 
  8 13  1  0  0  0  0 
  8 15  1  0  0  0  0 
  8 16  1  0  0  0  0 
  8 30  1  0  0  0  0 
  9 12  1  0  0  0  0 
  9 14  1  0  0  0  0 
  9 16  1  0  0  0  0 
  9 29  1  0  0  0  0 
 10 11  1  0  0  0  0 
 10 14  1  0  0  0  0 
 10 15  1  0  0  0  0 
 10 28  1  0  0  0  0 
 11 35  1  0  0  0  0 
 11 36  1  0  0  0  0 
 12 33  1  0  0  0  0 
 12 34  1  0  0  0  0 
 13 31  1  0  0  0  0 
 13 32  1  0  0  0  0 
 14 39  1  0  0  0  0 
 14 40  1  0  0  0  0 
 15 41  1  0  0  0  0 
 15 42  1  0  0  0  0 
 16 37  1  0  0  0  0 
 16 38  1  0  0  0  0 
 17 18  1  0  0  0  0 
 17 43  1  0  0  0  0 
 18 44  1  0  0  0  0 
 18 45  1  0  0  0  0 
 18 46  1  0  0  0  0 
 19 20  1  0  0  0  0 
 20 21  1  0  0  0  0 
 20 48  1  0  0  0  0 
 20 49  1  0  0  0  0 
 21 22  1  0  0  0  0 
 21 50  1  0  0  0  0 
 21 51  1  0  0  0  0 
 22 23  2  0  0  0  0 
 22 24  1  0  0  0  0 
 23 25  1  0  0  0  0 
 23 52  1  0  0  0  0 
 24 26  2  0  0  0  0 
 24 53  1  0  0  0  0 
 25 27  2  0  0  0  0 
 25 54  1  0  0  0  0 
 26 27  1  0  0  0  0 
 26 55  1  0  0  0  0 
M  END
> <cdk:Title>
45841961

> <cdk:Remark>
null

> <PUBCHEM_COMPOUND_CID>
45841961

> <PUBCHEM_COMPOUND_CANONICALIZED>
1

> <PUBCHEM_CACTVS_COMPLEXITY>
620

> <PUBCHEM_CACTVS_HBOND_ACCEPTOR>
4

> <PUBCHEM_CACTVS_HBOND_DONOR>
2

> <PUBCHEM_CACTVS_ROTATABLE_BOND>
6

> <PUBCHEM_CACTVS_SUBSKEYS>
AAADceB7MABAAAAAAAAAAAAAAAAAAAAAAAAwYMGDAAAAAAABAAAAHgQQQAAADyjB2AQyAYLAAAKIAiFSEHBCABAgAAAIiJkIAIgIIDKAkRCEIAAglgCIiAcYiMCPEAAAAAAAAAAgAAQAAAAAAAAAAAAAAA==

> <PUBCHEM_IUPAC_OPENEYE_NAME>
N-[1-(1-adamantyl)ethyl]-3-(4-sulfamoylphenyl)propanamide

> <PUBCHEM_IUPAC_CAS_NAME>
N-[1-(1-adamantyl)ethyl]-3-(4-sulfamoylphenyl)propanamide

> <PUBCHEM_IUPAC_NAME>
N-[1-(1-adamantyl)ethyl]-3-(4-sulfamoylphenyl)propanamide

> <PUBCHEM_IUPAC_SYSTEMATIC_NAME>
N-[1-(1-adamantyl)ethyl]-3-(4-sulfamoylphenyl)propanamide

> <PUBCHEM_IUPAC_TRADITIONAL_NAME>
N-[1-(1-adamantyl)ethyl]-3-(4-sulfamoylphenyl)propionamide

> <PUBCHEM_IUPAC_INCHI>
InChI=1S/C21H30N2O3S/c1-14(21-11-16-8-17(12-21)10-18(9-16)13-21)23-20(24)7-4-15-2-5-19(6-3-15)27(22,25)26/h2-3,5-6,14,16-18H,4,7-13H2,1H3,(H,23,24)(H2,22,25,26)

> <PUBCHEM_IUPAC_INCHIKEY>
PNDPBWRYPFRMQK-UHFFFAOYSA-N

> <PUBCHEM_XLOGP3_AA>
3.3

> <PUBCHEM_EXACT_MASS>
390.197714

> <PUBCHEM_MOLECULAR_FORMULA>
C21H30N2O3S

> <PUBCHEM_MOLECULAR_WEIGHT>
390.5395

> <PUBCHEM_OPENEYE_CAN_SMILES>
CC(C12CC3CC(C1)CC(C3)C2)NC(=O)CCC4=CC=C(C=C4)S(=O)(=O)N

> <PUBCHEM_OPENEYE_ISO_SMILES>
CC(C12CC3CC(C1)CC(C3)C2)NC(=O)CCC4=CC=C(C=C4)S(=O)(=O)N

> <PUBCHEM_CACTVS_TPSA>
97.6

> <PUBCHEM_MONOISOTOPIC_WEIGHT>
390.197714

> <PUBCHEM_TOTAL_CHARGE>
0

> <PUBCHEM_HEAVY_ATOM_COUNT>
27

> <PUBCHEM_ATOM_DEF_STEREO_COUNT>
0

> <PUBCHEM_ATOM_UDEF_STEREO_COUNT>
1

> <PUBCHEM_BOND_DEF_STEREO_COUNT>
0

> <PUBCHEM_BOND_UDEF_STEREO_COUNT>
0

> <PUBCHEM_ISOTOPIC_ATOM_COUNT>
0

> <PUBCHEM_COMPONENT_COUNT>
1

> <PUBCHEM_CACTVS_TAUTO_COUNT>
2

> <PUBCHEM_COORDINATE_TYPE>
1

> <PUBCHEM_BONDANNOTATIONS>
17  18  3

$$$$
