
  CDK     0202151410

 12 12  0  0  0  0  0  0  0  0999 V2000
    8.0995   -0.8189    0.0000 S   0  0  0  0  0  0  0  0  0  0  0  0
    3.9021    0.4891    0.0000 N   0  0  0  0  0  0  0  0  0  0  0  0
    8.5995    0.7199    0.0000 N   0  0  0  0  0  0  0  0  0  0  0  0
    7.5995    0.7199    0.0000 N   0  0  0  0  0  0  0  0  0  0  0  0
   11.5538   -0.1801    0.0000 C   0  0  0  0  0  0  0  0  0  0  0  0
   10.6028    0.1290    0.0000 C   0  0  3  0  0  0  0  0  0  0  0  0
    9.8596   -0.5402    0.0000 C   0  0  0  0  0  0  0  0  0  0  0  0
    8.9086   -0.2312    0.0000 C   0  0  0  0  0  0  0  0  0  0  0  0
    4.6453   -0.1801    0.0000 C   0  0  0  0  0  0  0  0  0  0  0  0
    5.5963    0.1290    0.0000 C   0  0  0  0  0  0  0  0  0  0  0  0
    6.3395   -0.5402    0.0000 C   0  0  0  0  0  0  0  0  0  0  0  0
    7.2905   -0.2312    0.0000 C   0  0  0  0  0  0  0  0  0  0  0  0
  1  8  1  0  0  0  0 
  1 12  1  0  0  0  0 
  2  9  1  0  0  0  0 
  3  4  1  0  0  0  0 
  3  8  1  0  0  0  0 
  4 12  1  0  0  0  0 
  5  6  1  0  0  0  0 
  6  7  1  0  0  0  0 
  7  8  1  0  0  0  0 
  9 10  1  0  0  0  0 
 10 11  1  0  0  0  0 
 11 12  1  0  0  0  0 
M  END
> <PUBCHEM_COMPOUND_CID>
65727590

$$$$
