
  CDK     0202151410

 22 24  0  0  0  0  0  0  0  0999 V2000
    2.9176   -0.3494    0.0000 O   0  0  0  0  0  0  0  0  0  0  0  0
    6.3981    1.6160    0.0000 O   0  0  0  0  0  0  0  0  0  0  0  0
    5.5321   -1.8840    0.0000 N   0  0  0  0  0  0  0  0  0  0  0  0
    4.6660   -3.3840    0.0000 N   0  0  0  0  0  0  0  0  0  0  0  0
    6.4783   -1.5792    0.0000 N   0  0  0  0  0  0  0  0  0  0  0  0
    6.4783   -3.1887    0.0000 N   0  0  0  0  0  0  0  0  0  0  0  0
    4.6660   -1.3840    0.0000 C   0  0  3  0  0  0  0  0  0  0  0  0
    3.8000   -1.8840    0.0000 C   0  0  0  0  0  0  0  0  0  0  0  0
    3.8000   -2.8840    0.0000 C   0  0  0  0  0  0  0  0  0  0  0  0
    2.9061   -3.4186    0.0000 C   0  0  0  0  0  0  0  0  0  0  0  0
    2.0000   -1.8632    0.0000 C   0  0  0  0  0  0  0  0  0  0  0  0
    2.9061   -1.3493    0.0000 C   0  0  0  0  0  0  0  0  0  0  0  0
    4.6660   -0.3840    0.0000 C   0  0  0  0  0  0  0  0  0  0  0  0
    5.5321   -2.8840    0.0000 C   0  0  0  0  0  0  0  0  0  0  0  0
    7.0619   -2.3840    0.0000 C   0  0  0  0  0  0  0  0  0  0  0  0
    5.5321    0.1160    0.0000 C   0  0  0  0  0  0  0  0  0  0  0  0
    3.8000    0.1160    0.0000 C   0  0  0  0  0  0  0  0  0  0  0  0
    8.0619   -2.3840    0.0000 C   0  0  0  0  0  0  0  0  0  0  0  0
    5.5321    1.1160    0.0000 C   0  0  0  0  0  0  0  0  0  0  0  0
    3.8000    1.1160    0.0000 C   0  0  0  0  0  0  0  0  0  0  0  0
    4.6660    1.6160    0.0000 C   0  0  0  0  0  0  0  0  0  0  0  0
    8.5619   -3.2500    0.0000 C   0  0  0  0  0  0  0  0  0  0  0  0
  1 12  1  0  0  0  0 
  2 19  1  0  0  0  0 
  3  5  1  0  0  0  0 
  3  7  1  0  0  0  0 
  3 14  1  0  0  0  0 
  4  9  1  0  0  0  0 
  4 14  1  0  0  0  0 
  5 15  1  0  0  0  0 
  6 14  1  0  0  0  0 
  6 15  1  0  0  0  0 
  7  8  1  0  0  0  0 
  7 13  1  0  0  0  0 
  8  9  1  0  0  0  0 
  8 12  1  0  0  0  0 
  9 10  1  0  0  0  0 
 11 12  1  0  0  0  0 
 13 16  1  0  0  0  0 
 13 17  1  0  0  0  0 
 15 18  1  0  0  0  0 
 16 19  1  0  0  0  0 
 17 20  1  0  0  0  0 
 18 22  1  0  0  0  0 
 19 21  1  0  0  0  0 
 20 21  1  0  0  0  0 
M  END
> <PUBCHEM_COMPOUND_CID>
23905966

$$$$
