
  CDK     0202151410

 21 21  0  0  0  0  0  0  0  0999 V2000
    9.8660    1.2429    0.0000 O   0  0  0  0  0  0  0  0  0  0  0  0
    5.4804   -1.2575    0.0000 O   0  0  0  0  0  0  0  0  0  0  0  0
   10.7263   -0.2604    0.0000 N   0  0  0  0  0  0  0  0  0  0  0  0
    6.3981    0.2563    0.0000 N   0  0  0  0  0  0  0  0  0  0  0  0
    5.4920    1.8118    0.0000 N   0  0  0  0  0  0  0  0  0  0  0  0
   11.5942    0.2362    0.0000 C   0  0  3  0  0  0  0  0  0  0  0  0
   11.5981    1.2362    0.0000 C   0  0  0  0  0  0  0  0  0  0  0  0
   12.4583   -0.2671    0.0000 C   0  0  0  0  0  0  0  0  0  0  0  0
   12.4544   -1.2671    0.0000 C   0  0  0  0  0  0  0  0  0  0  0  0
   13.3262    0.2296    0.0000 C   0  0  0  0  0  0  0  0  0  0  0  0
    8.9942   -0.2537    0.0000 C   0  0  0  0  0  0  0  0  0  0  0  0
    9.8622    0.2429    0.0000 C   0  0  0  0  0  0  0  0  0  0  0  0
    8.1301    0.2496    0.0000 C   0  0  0  0  0  0  0  0  0  0  0  0
    7.2622   -0.2471    0.0000 C   0  0  0  0  0  0  0  0  0  0  0  0
    5.4920   -0.2576    0.0000 C   0  0  0  0  0  0  0  0  0  0  0  0
    4.5981    0.2771    0.0000 C   0  0  0  0  0  0  0  0  0  0  0  0
    6.3981    1.2979    0.0000 C   0  0  0  0  0  0  0  0  0  0  0  0
    4.5981    1.2771    0.0000 C   0  0  0  0  0  0  0  0  0  0  0  0
    3.7320   -0.2229    0.0000 C   0  0  0  0  0  0  0  0  0  0  0  0
    3.7320    1.7771    0.0000 C   0  0  0  0  0  0  0  0  0  0  0  0
    2.8660    0.2771    0.0000 C   0  0  0  0  0  0  0  0  0  0  0  0
  1 12  1  0  0  0  0 
  2 15  1  0  0  0  0 
  3  6  1  0  0  0  0 
  3 12  1  0  0  0  0 
  4 14  1  0  0  0  0 
  4 15  1  0  0  0  0 
  4 17  1  0  0  0  0 
  5 17  1  0  0  0  0 
  5 18  1  0  0  0  0 
  6  7  1  0  0  0  0 
  6  8  1  0  0  0  0 
  8  9  1  0  0  0  0 
  8 10  1  0  0  0  0 
 11 12  1  0  0  0  0 
 11 13  1  0  0  0  0 
 13 14  1  0  0  0  0 
 15 16  1  0  0  0  0 
 16 18  1  0  0  0  0 
 16 19  1  0  0  0  0 
 18 20  1  0  0  0  0 
 19 21  1  0  0  0  0 
M  END
> <PUBCHEM_COMPOUND_CID>
46420414

$$$$

  CDK     0202151410

 21 22  0  0  0  0  0  0  0  0999 V2000
    8.9282    1.5000    0.0000 O   0  0  0  0  0  0  0  0  0  0  0  0
    2.8660    2.0000    0.0000 O   0  0  0  0  0  0  0  0  0  0  0  0
    4.5981   -1.0000    0.0000 O   0  0  0  0  0  0  0  0  0  0  0  0
    7.1962    1.5000    0.0000 N   0  0  0  0  0  0  0  0  0  0  0  0
    6.3301    2.0000    0.0000 C   0  0  1  0  0  0  0  0  0  0  0  0
    6.3301    3.0000    0.0000 C   0  0  2  0  0  0  0  0  0  0  0  0
    7.1962    3.5000    0.0000 C   0  0  0  0  0  0  0  0  0  0  0  0
    8.0622    3.0000    0.0000 C   0  0  0  0  0  0  0  0  0  0  0  0
    8.0622    2.0000    0.0000 C   0  0  0  0  0  0  0  0  0  0  0  0
    5.4641    1.5000    0.0000 C   0  0  0  0  0  0  0  0  0  0  0  0
    7.1962    0.5000    0.0000 C   0  0  0  0  0  0  0  0  0  0  0  0
    5.4641    3.5000    0.0000 C   0  0  0  0  0  0  0  0  0  0  0  0
    8.0622    0.0000    0.0000 C   0  0  0  0  0  0  0  0  0  0  0  0
    5.4641    0.5000    0.0000 C   0  0  0  0  0  0  0  0  0  0  0  0
    4.5981    2.0000    0.0000 C   0  0  0  0  0  0  0  0  0  0  0  0
    8.0622   -1.0000    0.0000 C   0  0  0  0  0  0  0  0  0  0  0  0
    3.7320    1.5000    0.0000 C   0  0  0  0  0  0  0  0  0  0  0  0
    4.5981    0.0000    0.0000 C   0  0  0  0  0  0  0  0  0  0  0  0
    3.7320    0.5000    0.0000 C   0  0  0  0  0  0  0  0  0  0  0  0
    7.1962   -1.5000    0.0000 C   0  0  0  0  0  0  0  0  0  0  0  0
    8.9282   -1.5000    0.0000 C   0  0  0  0  0  0  0  0  0  0  0  0
  1  9  1  0  0  0  0 
  2 17  1  0  0  0  0 
  3 18  1  0  0  0  0 
  4  5  1  0  0  0  0 
  4  9  1  0  0  0  0 
  4 11  1  0  0  0  0 
  5  6  1  0  0  0  0 
  5 10  1  6  0  0  0 
  6  7  1  0  0  0  0 
  6 12  1  1  0  0  0 
  7  8  1  0  0  0  0 
  8  9  1  0  0  0  0 
 10 14  1  0  0  0  0 
 10 15  1  0  0  0  0 
 11 13  1  0  0  0  0 
 13 16  1  0  0  0  0 
 14 18  1  0  0  0  0 
 15 17  1  0  0  0  0 
 16 20  1  0  0  0  0 
 16 21  1  0  0  0  0 
 17 19  1  0  0  0  0 
 18 19  1  0  0  0  0 
M  END
> <PUBCHEM_COMPOUND_CID>
40778163

$$$$

  CDK     0202151410

 20 20  0  0  0  0  0  0  0  0999 V2000
    4.4487   -1.2088    0.0000 S   0  0  0  0  0  0  0  0  0  0  0  0
    7.9128    1.7912    0.0000 O   0  0  0  0  0  0  0  0  0  0  0  0
   13.9750   -0.7088    0.0000 O   0  0  0  0  0  0  0  0  0  0  0  0
    5.3147   -0.7088    0.0000 N   0  0  0  0  0  0  0  0  0  0  0  0
    7.0468    0.2912    0.0000 N   0  0  0  0  0  0  0  0  0  0  0  0
   13.1090    0.7912    0.0000 N   0  0  0  0  0  0  0  0  0  0  0  0
   13.9750    2.2912    0.0000 N   0  0  0  0  0  0  0  0  0  0  0  0
    6.1808   -1.2088    0.0000 C   0  0  0  0  0  0  0  0  0  0  0  0
    5.3147    0.2912    0.0000 C   0  0  0  0  0  0  0  0  0  0  0  0
    6.1808    0.7912    0.0000 C   0  0  0  0  0  0  0  0  0  0  0  0
    7.0468   -0.7088    0.0000 C   0  0  0  0  0  0  0  0  0  0  0  0
    7.9128    0.7912    0.0000 C   0  0  0  0  0  0  0  0  0  0  0  0
    8.7788    0.2912    0.0000 C   0  0  0  0  0  0  0  0  0  0  0  0
    9.6448    0.7912    0.0000 C   0  0  0  0  0  0  0  0  0  0  0  0
   10.5109    0.2912    0.0000 C   0  0  0  0  0  0  0  0  0  0  0  0
   11.3769    0.7912    0.0000 C   0  0  0  0  0  0  0  0  0  0  0  0
   12.2429    0.2912    0.0000 C   0  0  0  0  0  0  0  0  0  0  0  0
   13.9750    0.2912    0.0000 C   0  0  0  0  0  0  0  0  0  0  0  0
   13.1090    1.7912    0.0000 C   0  0  0  0  0  0  0  0  0  0  0  0
   14.8410    0.7912    0.0000 C   0  0  0  0  0  0  0  0  0  0  0  0
  1  4  1  0  0  0  0 
  2 12  1  0  0  0  0 
  3 18  1  0  0  0  0 
  4  8  1  0  0  0  0 
  4  9  1  0  0  0  0 
  5 10  1  0  0  0  0 
  5 11  1  0  0  0  0 
  5 12  1  0  0  0  0 
  6 17  1  0  0  0  0 
  6 18  1  0  0  0  0 
  6 19  1  0  0  0  0 
  7 19  1  0  0  0  0 
  8 11  1  0  0  0  0 
  9 10  1  0  0  0  0 
 12 13  1  0  0  0  0 
 13 14  1  0  0  0  0 
 14 15  1  0  0  0  0 
 15 16  1  0  0  0  0 
 16 17  1  0  0  0  0 
 18 20  1  0  0  0  0 
M  END
> <PUBCHEM_COMPOUND_CID>
38605558

$$$$

  CDK     0202151410

 21 22  0  0  0  0  0  0  0  0999 V2000
    4.5981   -4.2500    0.0000 O   0  0  0  0  0  0  0  0  0  0  0  0
    6.3301   -4.2500    0.0000 O   0  0  0  0  0  0  0  0  0  0  0  0
    5.4641    5.2500    0.0000 C   0  0  0  0  0  0  0  0  0  0  0  0
    4.5981    5.7500    0.0000 C   0  0  0  0  0  0  0  0  0  0  0  0
    6.3301    5.7500    0.0000 C   0  0  0  0  0  0  0  0  0  0  0  0
    5.4641    4.2500    0.0000 C   0  0  0  0  0  0  0  0  0  0  0  0
    4.5981    3.7500    0.0000 C   0  0  0  0  0  0  0  0  0  0  0  0
    6.3301    3.7500    0.0000 C   0  0  0  0  0  0  0  0  0  0  0  0
    4.5981    2.7500    0.0000 C   0  0  0  0  0  0  0  0  0  0  0  0
    6.3301    2.7500    0.0000 C   0  0  0  0  0  0  0  0  0  0  0  0
    5.4641    2.2500    0.0000 C   0  0  0  0  0  0  0  0  0  0  0  0
    5.4641    1.2500    0.0000 C   0  0  0  0  0  0  0  0  0  0  0  0
    4.5981   -5.2500    0.0000 C   0  0  3  0  0  0  0  0  0  0  0  0
    5.4641    0.2500    0.0000 C   0  0  0  0  0  0  0  0  0  0  0  0
    5.4641   -0.7500    0.0000 C   0  0  0  0  0  0  0  0  0  0  0  0
    5.4641   -3.7500    0.0000 C   0  0  0  0  0  0  0  0  0  0  0  0
    5.4641   -2.7500    0.0000 C   0  0  0  0  0  0  0  0  0  0  0  0
    4.5981   -1.2500    0.0000 C   0  0  0  0  0  0  0  0  0  0  0  0
    6.3301   -1.2500    0.0000 C   0  0  0  0  0  0  0  0  0  0  0  0
    4.5981   -2.2500    0.0000 C   0  0  0  0  0  0  0  0  0  0  0  0
    6.3301   -2.2500    0.0000 C   0  0  0  0  0  0  0  0  0  0  0  0
  1 13  1  0  0  0  0 
  1 16  1  0  0  0  0 
  2 16  1  0  0  0  0 
  3  4  1  0  0  0  0 
  3  5  1  0  0  0  0 
  3  6  1  0  0  0  0 
  6  7  1  0  0  0  0 
  6  8  1  0  0  0  0 
  7  9  1  0  0  0  0 
  8 10  1  0  0  0  0 
  9 11  1  0  0  0  0 
 10 11  1  0  0  0  0 
 11 12  1  0  0  0  0 
 12 14  1  0  0  0  0 
 14 15  1  0  0  0  0 
 15 18  1  0  0  0  0 
 15 19  1  0  0  0  0 
 16 17  1  0  0  0  0 
 17 20  1  0  0  0  0 
 17 21  1  0  0  0  0 
 18 20  1  0  0  0  0 
 19 21  1  0  0  0  0 
M  END
> <PUBCHEM_COMPOUND_CID>
15919642

$$$$

  CDK     0202151410

 21 22  0  0  0  0  0  0  0  0999 V2000
    2.8660   -3.6783    0.0000 O   0  0  0  0  0  0  0  0  0  0  0  0
    3.7320   -0.1783    0.0000 O   0  0  0  0  0  0  0  0  0  0  0  0
    8.2788    4.0241    0.0000 N   0  0  0  0  0  0  0  0  0  0  0  0
    7.3007    3.8162    0.0000 N   0  0  0  0  0  0  0  0  0  0  0  0
    5.4641   -0.1783    0.0000 N   0  0  0  0  0  0  0  0  0  0  0  0
    9.7734    3.0536    0.0000 N   0  0  0  0  0  0  0  0  0  0  0  0
    6.3301    2.3217    0.0000 C   0  0  0  0  0  0  0  0  0  0  0  0
    6.3301    1.3217    0.0000 C   0  0  0  0  0  0  0  0  0  0  0  0
    7.1962    2.8217    0.0000 C   0  0  0  0  0  0  0  0  0  0  0  0
    5.4641    0.8217    0.0000 C   0  0  0  0  0  0  0  0  0  0  0  0
    8.1097    2.4150    0.0000 C   0  0  0  0  0  0  0  0  0  0  0  0
    8.7788    3.1581    0.0000 C   0  0  0  0  0  0  0  0  0  0  0  0
    8.6856    4.9377    0.0000 C   0  0  0  0  0  0  0  0  0  0  0  0
    4.5981   -0.6783    0.0000 C   0  0  0  0  0  0  0  0  0  0  0  0
    4.5981   -1.6783    0.0000 C   0  0  0  0  0  0  0  0  0  0  0  0
    4.5981   -3.6783    0.0000 C   0  0  0  0  0  0  0  0  0  0  0  0
    3.7320   -2.1783    0.0000 C   0  0  0  0  0  0  0  0  0  0  0  0
    3.7320   -3.1783    0.0000 C   0  0  0  0  0  0  0  0  0  0  0  0
    5.4641   -2.1783    0.0000 C   0  0  0  0  0  0  0  0  0  0  0  0
    5.4641   -3.1783    0.0000 C   0  0  0  0  0  0  0  0  0  0  0  0
    8.3176    1.4368    0.0000 C   0  0  0  0  0  0  0  0  0  0  0  0
  1 18  1  0  0  0  0 
  2 14  1  0  0  0  0 
  3  4  1  0  0  0  0 
  3 12  1  0  0  0  0 
  3 13  1  0  0  0  0 
  4  9  1  0  0  0  0 
  5 10  1  0  0  0  0 
  5 14  1  0  0  0  0 
  6 12  1  0  0  0  0 
  7  8  1  0  0  0  0 
  7  9  1  0  0  0  0 
  8 10  1  0  0  0  0 
  9 11  1  0  0  0  0 
 11 12  1  0  0  0  0 
 11 21  1  0  0  0  0 
 14 15  1  0  0  0  0 
 15 17  1  0  0  0  0 
 15 19  1  0  0  0  0 
 16 18  1  0  0  0  0 
 16 20  1  0  0  0  0 
 17 18  1  0  0  0  0 
 19 20  1  0  0  0  0 
M  END
> <PUBCHEM_COMPOUND_CID>
39022188

$$$$
