
  CDK     0202151410

 14 13  0  0  0  0  0  0  0  0999 V2000
    4.5981    0.2327    0.0000 O   0  0  0  0  0  0  0  0  0  0  0  0
    5.4641   -1.2673    0.0000 N   0  0  0  0  0  0  0  0  0  0  0  0
    6.3301    1.2327    0.0000 N   0  0  3  0  0  0  0  0  0  0  0  0
    3.7321   -1.2673    0.0000 C   0  0  2  0  0  0  0  0  0  0  0  0
    2.8660   -1.7673    0.0000 C   0  0  1  0  0  0  0  0  0  0  0  0
    4.5981   -1.7673    0.0000 C   0  0  2  0  0  0  0  0  0  0  0  0
    4.5981   -2.7673    0.0000 C   0  0  0  0  0  0  0  0  0  0  0  0
    5.4641   -0.2673    0.0000 C   0  0  0  0  0  0  0  0  0  0  0  0
    6.3301    0.2327    0.0000 C   0  0  0  0  0  0  0  0  0  0  0  0
    5.4641    1.7327    0.0000 C   0  0  0  0  0  0  0  0  0  0  0  0
    7.1962    1.7327    0.0000 C   0  0  0  0  0  0  0  0  0  0  0  0
    5.4641    2.7327    0.0000 C   0  0  0  0  0  0  0  0  0  0  0  0
    7.1962    2.7327    0.0000 C   0  0  0  0  0  0  0  0  0  0  0  0
    8.0901    1.1980    0.0000 C   0  0  0  0  0  0  0  0  0  0  0  0
  1  8  1  0  0  0  0 
  6  2  1  1  0  0  0 
  2  8  1  0  0  0  0 
  3  9  1  0  0  0  0 
  3 10  1  0  0  0  0 
  3 11  1  0  0  0  0 
  4  5  1  0  0  0  0 
  4  6  1  0  0  0  0 
  6  7  1  0  0  0  0 
  8  9  1  0  0  0  0 
 10 12  1  0  0  0  0 
 11 13  1  0  0  0  0 
 11 14  1  0  0  0  0 
M  END
> <PUBCHEM_COMPOUND_CID>
37715992

$$$$

  CDK     0202151410

 14 14  0  0  0  0  0  0  0  0999 V2000
    2.0000    1.1054    0.0000 O   0  0  0  0  0  0  0  0  0  0  0  0
    5.8424   -0.8592    0.0000 O   0  0  0  0  0  0  0  0  0  0  0  0
    3.4013    2.1235    0.0000 N   0  0  0  0  0  0  0  0  0  0  0  0
    4.0823   -1.1380    0.0000 N   0  0  0  0  0  0  0  0  0  0  0  0
    2.8135    2.9325    0.0000 C   0  0  0  0  0  0  0  0  0  0  0  0
    3.5823    0.4009    0.0000 C   0  0  2  0  0  0  0  0  0  0  0  0
    3.2733   -0.5502    0.0000 C   0  0  0  0  0  0  0  0  0  0  0  0
    4.5823    0.4009    0.0000 C   0  0  0  0  0  0  0  0  0  0  0  0
    2.9945    1.2099    0.0000 C   0  0  0  0  0  0  0  0  0  0  0  0
    4.8913   -0.5502    0.0000 C   0  0  0  0  0  0  0  0  0  0  0  0
    4.0823   -2.1380    0.0000 C   0  0  0  0  0  0  0  0  0  0  0  0
    3.2163   -2.6380    0.0000 C   0  0  0  0  0  0  0  0  0  0  0  0
    4.9483   -2.6380    0.0000 C   0  0  0  0  0  0  0  0  0  0  0  0
    3.2163   -3.6380    0.0000 C   0  0  0  0  0  0  0  0  0  0  0  0
  1  9  1  0  0  0  0 
  2 10  1  0  0  0  0 
  3  5  1  0  0  0  0 
  3  9  1  0  0  0  0 
  4  7  1  0  0  0  0 
  4 10  1  0  0  0  0 
  4 11  1  0  0  0  0 
  6  7  1  0  0  0  0 
  6  8  1  0  0  0  0 
  6  9  1  1  0  0  0 
  8 10  1  0  0  0  0 
 11 12  1  0  0  0  0 
 11 13  1  0  0  0  0 
 12 14  1  0  0  0  0 
M  END
> <PUBCHEM_COMPOUND_CID>
38653339

$$$$

  CDK     0202151410

 15 15  0  0  0  0  0  0  0  0999 V2000
    2.8660   -0.2500    0.0000 O   0  0  0  0  0  0  0  0  0  0  0  0
    5.4641   -1.7500    0.0000 N   0  0  0  0  0  0  0  0  0  0  0  0
    6.3301   -0.2500    0.0000 N   0  0  0  0  0  0  0  0  0  0  0  0
    4.5981   -1.2500    0.0000 C   0  0  2  0  0  0  0  0  0  0  0  0
    4.5981   -0.2500    0.0000 C   0  0  0  0  0  0  0  0  0  0  0  0
    5.4641    0.2500    0.0000 C   0  0  0  0  0  0  0  0  0  0  0  0
    3.7320   -1.7500    0.0000 C   0  0  0  0  0  0  0  0  0  0  0  0
    5.4641    1.2500    0.0000 C   0  0  0  0  0  0  0  0  0  0  0  0
    6.3301   -1.2500    0.0000 C   0  0  0  0  0  0  0  0  0  0  0  0
    3.7320    0.2500    0.0000 C   0  0  0  0  0  0  0  0  0  0  0  0
    2.8660   -1.2500    0.0000 C   0  0  0  0  0  0  0  0  0  0  0  0
    3.7320   -2.7500    0.0000 C   0  0  0  0  0  0  0  0  0  0  0  0
    6.3301    1.7500    0.0000 C   0  0  0  0  0  0  0  0  0  0  0  0
    4.5981    1.7500    0.0000 C   0  0  0  0  0  0  0  0  0  0  0  0
    3.7320    1.2500    0.0000 C   0  0  0  0  0  0  0  0  0  0  0  0
  1 10  1  0  0  0  0 
  2  4  1  0  0  0  0 
  2  9  1  0  0  0  0 
  3  6  1  0  0  0  0 
  3  9  1  0  0  0  0 
  4  5  1  0  0  0  0 
  4  7  1  1  0  0  0 
  5  6  1  0  0  0  0 
  5 10  1  0  0  0  0 
  6  8  1  0  0  0  0 
  7 11  1  0  0  0  0 
  7 12  1  0  0  0  0 
  8 13  1  0  0  0  0 
  8 14  1  0  0  0  0 
 10 15  1  0  0  0  0 
M  END
> <PUBCHEM_COMPOUND_CID>
890505

$$$$

  CDK     0202151410

 14 13  0  0  0  0  0  0  0  0999 V2000
    4.5981    0.2327    0.0000 O   0  0  0  0  0  0  0  0  0  0  0  0
    5.4641   -1.2673    0.0000 N   0  0  0  0  0  0  0  0  0  0  0  0
    6.3301    1.2327    0.0000 N   0  0  3  0  0  0  0  0  0  0  0  0
    3.7321   -1.2673    0.0000 C   0  0  2  0  0  0  0  0  0  0  0  0
    2.8660   -1.7673    0.0000 C   0  0  1  0  0  0  0  0  0  0  0  0
    4.5981   -1.7673    0.0000 C   0  0  2  0  0  0  0  0  0  0  0  0
    4.5981   -2.7673    0.0000 C   0  0  0  0  0  0  0  0  0  0  0  0
    5.4641   -0.2673    0.0000 C   0  0  0  0  0  0  0  0  0  0  0  0
    6.3301    0.2327    0.0000 C   0  0  0  0  0  0  0  0  0  0  0  0
    5.4641    1.7327    0.0000 C   0  0  0  0  0  0  0  0  0  0  0  0
    7.1962    1.7327    0.0000 C   0  0  0  0  0  0  0  0  0  0  0  0
    5.4641    2.7327    0.0000 C   0  0  0  0  0  0  0  0  0  0  0  0
    7.1962    2.7327    0.0000 C   0  0  0  0  0  0  0  0  0  0  0  0
    8.0901    1.1980    0.0000 C   0  0  0  0  0  0  0  0  0  0  0  0
  1  8  1  0  0  0  0 
  6  2  1  1  0  0  0 
  2  8  1  0  0  0  0 
  3  9  1  0  0  0  0 
  3 10  1  0  0  0  0 
  3 11  1  0  0  0  0 
  4  5  1  0  0  0  0 
  4  6  1  0  0  0  0 
  6  7  1  0  0  0  0 
  8  9  1  0  0  0  0 
 10 12  1  0  0  0  0 
 11 13  1  0  0  0  0 
 11 14  1  0  0  0  0 
M  END
> <PUBCHEM_COMPOUND_CID>
37715992

$$$$

  CDK     0202151410

 14 14  0  0  0  0  0  0  0  0999 V2000
    4.9889   -1.2049    0.0000 O   0  0  0  0  0  0  0  0  0  0  0  0
    5.6103    0.6961    0.0000 O   0  0  0  0  0  0  0  0  0  0  0  0
    3.7320   -2.4602    0.0000 N   0  0  0  0  0  0  0  0  0  0  0  0
    7.2566    0.1581    0.0000 N   0  0  0  0  0  0  0  0  0  0  0  0
    4.6783   -3.7649    0.0000 N   0  0  0  0  0  0  0  0  0  0  0  0
    5.2619   -2.9602    0.0000 N   0  0  0  0  0  0  0  0  0  0  0  0
    3.7320   -3.4602    0.0000 C   0  0  0  0  0  0  0  0  0  0  0  0
    4.6783   -2.1554    0.0000 C   0  0  0  0  0  0  0  0  0  0  0  0
    2.8660   -1.9602    0.0000 C   0  0  0  0  0  0  0  0  0  0  0  0
    5.9674   -0.9987    0.0000 C   0  0  0  0  0  0  0  0  0  0  0  0
    7.5673    1.1086    0.0000 C   0  0  0  0  0  0  0  0  0  0  0  0
    6.2781   -0.0482    0.0000 C   0  0  0  0  0  0  0  0  0  0  0  0
    8.5458    1.3148    0.0000 C   0  0  0  0  0  0  0  0  0  0  0  0
    6.8994    1.8529    0.0000 C   0  0  0  0  0  0  0  0  0  0  0  0
  1  8  1  0  0  0  0 
  1 10  1  0  0  0  0 
  2 12  1  0  0  0  0 
  3  7  1  0  0  0  0 
  3  8  1  0  0  0  0 
  3  9  1  0  0  0  0 
  4 11  1  0  0  0  0 
  4 12  1  0  0  0  0 
  5  6  1  0  0  0  0 
  5  7  1  0  0  0  0 
  6  8  1  0  0  0  0 
 10 12  1  0  0  0  0 
 11 13  1  0  0  0  0 
 11 14  1  0  0  0  0 
M  END
> <PUBCHEM_COMPOUND_CID>
9355739

$$$$

  CDK     0202151410

 15 15  0  0  0  0  0  0  0  0999 V2000
    2.8660   -0.2500    0.0000 O   0  0  0  0  0  0  0  0  0  0  0  0
    5.4641   -1.7500    0.0000 N   0  0  0  0  0  0  0  0  0  0  0  0
    6.3301   -0.2500    0.0000 N   0  0  0  0  0  0  0  0  0  0  0  0
    4.5981   -1.2500    0.0000 C   0  0  2  0  0  0  0  0  0  0  0  0
    4.5981   -0.2500    0.0000 C   0  0  0  0  0  0  0  0  0  0  0  0
    5.4641    0.2500    0.0000 C   0  0  0  0  0  0  0  0  0  0  0  0
    3.7320   -1.7500    0.0000 C   0  0  0  0  0  0  0  0  0  0  0  0
    5.4641    1.2500    0.0000 C   0  0  0  0  0  0  0  0  0  0  0  0
    6.3301   -1.2500    0.0000 C   0  0  0  0  0  0  0  0  0  0  0  0
    3.7320    0.2500    0.0000 C   0  0  0  0  0  0  0  0  0  0  0  0
    2.8660   -1.2500    0.0000 C   0  0  0  0  0  0  0  0  0  0  0  0
    3.7320   -2.7500    0.0000 C   0  0  0  0  0  0  0  0  0  0  0  0
    6.3301    1.7500    0.0000 C   0  0  0  0  0  0  0  0  0  0  0  0
    4.5981    1.7500    0.0000 C   0  0  0  0  0  0  0  0  0  0  0  0
    3.7320    1.2500    0.0000 C   0  0  0  0  0  0  0  0  0  0  0  0
  1 10  1  0  0  0  0 
  2  4  1  0  0  0  0 
  2  9  1  0  0  0  0 
  3  6  1  0  0  0  0 
  3  9  1  0  0  0  0 
  4  5  1  0  0  0  0 
  4  7  1  1  0  0  0 
  5  6  1  0  0  0  0 
  5 10  1  0  0  0  0 
  6  8  1  0  0  0  0 
  7 11  1  0  0  0  0 
  7 12  1  0  0  0  0 
  8 13  1  0  0  0  0 
  8 14  1  0  0  0  0 
 10 15  1  0  0  0  0 
M  END
> <PUBCHEM_COMPOUND_CID>
890505

$$$$
