
  CDK     0202151410

 13 14  0  0  0  0  0  0  0  0999 V2000
    5.6591   -0.5785    0.0000 C   0  0  2  0  0  0  0  0  0  0  0  0
    4.7931   -0.0785    0.0000 C   0  0  1  0  0  0  0  0  0  0  0  0
    6.5251   -0.0785    0.0000 C   0  0  1  0  0  0  0  0  0  0  0  0
    6.5251    0.9215    0.0000 C   0  0  2  0  0  0  0  0  0  0  0  0
    3.8831   -0.5854    0.0000 C   0  0  2  0  0  0  0  0  0  0  0  0
    4.7931    0.9215    0.0000 C   0  0  0  0  0  0  0  0  0  0  0  0
    5.6591    1.4215    0.0000 C   0  0  0  0  0  0  0  0  0  0  0  0
    5.6752   -1.6200    0.0000 C   0  0  0  0  0  0  0  0  0  0  0  0
    7.4714   -0.3833    0.0000 C   0  0  0  0  0  0  0  0  0  0  0  0
    3.8751   -1.6270    0.0000 C   0  0  0  0  0  0  0  0  0  0  0  0
    2.9562   -0.0213    0.0000 C   0  0  3  0  0  0  0  0  0  0  0  0
    4.7771   -2.1478    0.0000 C   0  0  0  0  0  0  0  0  0  0  0  0
    3.8908    0.4146    0.0000 C   0  0  0  0  0  0  0  0  0  0  0  0
  1  2  1  0  0  0  0 
  1  3  1  0  0  0  0 
  1  8  1  0  0  0  0 
  2  5  1  0  0  0  0 
  2  6  1  0  0  0  0 
  3  4  1  0  0  0  0 
  3  9  1  0  0  0  0 
  4  7  1  0  0  0  0 
  5 10  1  0  0  0  0 
  5 11  1  0  0  0  0 
  5 13  1  1  0  0  0 
  6  7  1  0  0  0  0 
  8 12  1  0  0  0  0 
 10 12  1  0  0  0  0 
M  END
> <PUBCHEM_COMPOUND_CID>
69937028

$$$$
