
  CDK     0224151638

 18 19  0  0  0  0  0  0  0  0999 V2000
    3.0000    1.8660    0.0000 S   0  0  0  0  0  0  0  0  0  0  0  0
    6.4641   -4.1340    0.0000 N   0  0  3  0  0  0  0  0  0  0  0  0
    4.7320   -1.1340    0.0000 N   0  0  0  0  0  0  0  0  0  0  0  0
    3.0000    0.8660    0.0000 N   0  0  0  0  0  0  0  0  0  0  0  0
    5.5981   -2.6340    0.0000 C   0  0  2  0  0  0  0  0  0  0  0  0
    5.5981   -3.6340    0.0000 C   0  0  0  0  0  0  0  0  0  0  0  0
    7.3301   -3.6340    0.0000 C   0  0  0  0  0  0  0  0  0  0  0  0
    6.4641   -2.1340    0.0000 C   0  0  0  0  0  0  0  0  0  0  0  0
    7.3301   -2.6340    0.0000 C   0  0  0  0  0  0  0  0  0  0  0  0
    4.7320   -2.1340    0.0000 C   0  0  0  0  0  0  0  0  0  0  0  0
    3.8660   -0.6340    0.0000 C   0  0  0  0  0  0  0  0  0  0  0  0
    3.8660    0.3660    0.0000 C   0  0  2  0  0  0  0  0  0  0  0  0
    3.0000    2.8660    0.0000 C   0  0  0  0  0  0  0  0  0  0  0  0
    3.8660    3.3660    0.0000 C   0  0  0  0  0  0  0  0  0  0  0  0
    2.1340    3.3660    0.0000 C   0  0  0  0  0  0  0  0  0  0  0  0
    3.8660    4.3660    0.0000 C   0  0  0  0  0  0  0  0  0  0  0  0
    2.1340    4.3660    0.0000 C   0  0  0  0  0  0  0  0  0  0  0  0
    3.0000    4.8660    0.0000 C   0  0  0  0  0  0  0  0  0  0  0  0
  1  4  1  0  0  0  0 
  1 13  1  0  0  0  0 
  2  6  1  0  0  0  0 
  2  7  1  0  0  0  0 
  3 10  1  0  0  0  0 
  3 11  1  0  0  0  0 
 12  4  1  1  0  0  0 
  5  6  1  0  0  0  0 
  5  8  1  0  0  0  0 
  5 10  1  1  0  0  0 
  7  9  1  0  0  0  0 
  8  9  1  0  0  0  0 
 11 12  1  0  0  0  0 
 13 14  1  0  0  0  0 
 13 15  1  0  0  0  0 
 14 16  1  0  0  0  0 
 15 17  1  0  0  0  0 
 16 18  1  0  0  0  0 
 17 18  1  0  0  0  0 
M  CHG  1   2   1
M  END
> <PUBCHEM_COMPOUND_CID>
52790494

$$$$
