
  CDK     0224152114

 24 27  0  0  0  0  0  0  0  0999 V2000
    6.2853    0.9154    0.0000 O   0  0  0  0  0  0  0  0  0  0  0  0
    3.5827    1.4209    0.0000 N   0  0  0  0  0  0  0  0  0  0  0  0
    4.4487   -0.0791    0.0000 N   0  0  0  0  0  0  0  0  0  0  0  0
    4.1168    4.0791    0.0000 N   0  0  0  0  0  0  0  0  0  0  0  0
    3.4782    2.4154    0.0000 C   0  0  3  0  0  0  0  0  0  0  0  0
    2.5000    2.6234    0.0000 C   0  0  0  0  0  0  0  0  0  0  0  0
    2.0000    1.7573    0.0000 C   0  0  0  0  0  0  0  0  0  0  0  0
    2.6691    1.0142    0.0000 C   0  0  0  0  0  0  0  0  0  0  0  0
    6.1808   -0.0791    0.0000 C   0  0  3  0  0  0  0  0  0  0  0  0
    5.3147   -0.5791    0.0000 C   0  0  3  0  0  0  0  0  0  0  0  0
    7.0943   -0.4858    0.0000 C   0  0  0  0  0  0  0  0  0  0  0  0
    4.2213    3.0846    0.0000 C   0  0  0  0  0  0  0  0  0  0  0  0
    4.4487    0.9209    0.0000 C   0  0  0  0  0  0  0  0  0  0  0  0
    7.7634    0.2573    0.0000 C   0  0  0  0  0  0  0  0  0  0  0  0
    7.2634    1.1234    0.0000 C   0  0  0  0  0  0  0  0  0  0  0  0
    5.3147   -1.5791    0.0000 C   0  0  0  0  0  0  0  0  0  0  0  0
    5.1994    2.8766    0.0000 C   0  0  0  0  0  0  0  0  0  0  0  0
    5.0303    4.4858    0.0000 C   0  0  0  0  0  0  0  0  0  0  0  0
    5.6994    3.7427    0.0000 C   0  0  0  0  0  0  0  0  0  0  0  0
    6.1808   -2.0791    0.0000 C   0  0  0  0  0  0  0  0  0  0  0  0
    4.4487   -2.0791    0.0000 C   0  0  0  0  0  0  0  0  0  0  0  0
    6.1808   -3.0791    0.0000 C   0  0  0  0  0  0  0  0  0  0  0  0
    4.4487   -3.0791    0.0000 C   0  0  0  0  0  0  0  0  0  0  0  0
    5.3147   -3.5791    0.0000 C   0  0  0  0  0  0  0  0  0  0  0  0
  1  9  1  0  0  0  0 
  1 15  1  0  0  0  0 
  2  5  1  0  0  0  0 
  2  8  1  0  0  0  0 
  2 13  1  0  0  0  0 
  3 10  1  0  0  0  0 
  3 13  1  0  0  0  0 
  4 12  1  0  0  0  0 
  4 18  1  0  0  0  0 
  5  6  1  0  0  0  0 
  5 12  1  0  0  0  0 
  6  7  1  0  0  0  0 
  7  8  1  0  0  0  0 
  9 10  1  0  0  0  0 
  9 11  1  0  0  0  0 
 10 16  1  0  0  0  0 
 11 14  1  0  0  0  0 
 12 17  1  0  0  0  0 
 14 15  1  0  0  0  0 
 16 20  1  0  0  0  0 
 16 21  1  0  0  0  0 
 17 19  1  0  0  0  0 
 18 19  1  0  0  0  0 
 20 22  1  0  0  0  0 
 21 23  1  0  0  0  0 
 22 24  1  0  0  0  0 
 23 24  1  0  0  0  0 
M  END
> <PUBCHEM_COMPOUND_CID>
60547685

$$$$

  CDK     0224152114

 24 27  0  0  0  0  0  0  0  0999 V2000
   10.3615    1.3364    0.0000 N   0  0  0  0  0  0  0  0  0  0  0  0
    9.8615    2.2024    0.0000 N   0  0  0  0  0  0  0  0  0  0  0  0
    7.0468    1.0000    0.0000 N   0  0  0  0  0  0  0  0  0  0  0  0
    3.5827   -1.0000    0.0000 N   0  0  0  0  0  0  0  0  0  0  0  0
   11.7628    0.3183    0.0000 N   0  0  0  0  0  0  0  0  0  0  0  0
    5.3147   -1.0000    0.0000 N   0  0  0  0  0  0  0  0  0  0  0  0
   12.7573    0.2138    0.0000 N   0  0  0  0  0  0  0  0  0  0  0  0
    2.0000   -1.3364    0.0000 N   0  0  0  0  0  0  0  0  0  0  0  0
    9.6924    0.5933    0.0000 C   0  0  0  0  0  0  0  0  0  0  0  0
    8.7788    1.0000    0.0000 C   0  0  0  0  0  0  0  0  0  0  0  0
    8.8834    1.9945    0.0000 C   0  0  0  0  0  0  0  0  0  0  0  0
    7.9128    0.5000    0.0000 C   0  0  0  0  0  0  0  0  0  0  0  0
   11.3560    1.2319    0.0000 C   0  0  0  0  0  0  0  0  0  0  0  0
    6.1808    0.5000    0.0000 C   0  0  0  0  0  0  0  0  0  0  0  0
    4.4487   -0.5000    0.0000 C   0  0  0  0  0  0  0  0  0  0  0  0
   11.9438    2.0409    0.0000 C   0  0  0  0  0  0  0  0  0  0  0  0
    5.3147    1.0000    0.0000 C   0  0  0  0  0  0  0  0  0  0  0  0
    4.4487    0.5000    0.0000 C   0  0  0  0  0  0  0  0  0  0  0  0
    6.1808   -0.5000    0.0000 C   0  0  0  0  0  0  0  0  0  0  0  0
   12.9383    1.9364    0.0000 C   0  0  0  0  0  0  0  0  0  0  0  0
    3.4782   -1.9945    0.0000 C   0  0  0  0  0  0  0  0  0  0  0  0
   13.3451    1.0228    0.0000 C   0  0  0  0  0  0  0  0  0  0  0  0
    2.6691   -0.5933    0.0000 C   0  0  0  0  0  0  0  0  0  0  0  0
    2.5000   -2.2024    0.0000 C   0  0  0  0  0  0  0  0  0  0  0  0
  1  2  1  0  0  0  0 
  1  9  1  0  0  0  0 
  1 13  1  0  0  0  0 
  2 11  1  0  0  0  0 
  3 12  1  0  0  0  0 
  3 14  1  0  0  0  0 
  4 15  1  0  0  0  0 
  4 21  1  0  0  0  0 
  4 23  1  0  0  0  0 
  5  7  1  0  0  0  0 
  5 13  1  0  0  0  0 
  6 15  1  0  0  0  0 
  6 19  1  0  0  0  0 
  7 22  1  0  0  0  0 
  8 23  1  0  0  0  0 
  8 24  1  0  0  0  0 
  9 10  1  0  0  0  0 
 10 11  1  0  0  0  0 
 10 12  1  0  0  0  0 
 13 16  1  0  0  0  0 
 14 17  1  0  0  0  0 
 14 19  1  0  0  0  0 
 15 18  1  0  0  0  0 
 16 20  1  0  0  0  0 
 17 18  1  0  0  0  0 
 20 22  1  0  0  0  0 
 21 24  1  0  0  0  0 
M  END
> <PUBCHEM_COMPOUND_CID>
32215824

$$$$
