
  CDK     1227140956

 43 46  0  0  0  0  0  0  0  0999 V2000
    7.4674   -1.8041    0.0000 O   0  0  0  0  0  0  0  0  0  0  0  0
    9.1710    2.4903    0.0000 O   0  0  0  0  0  0  0  0  0  0  0  0
    8.6228    0.5761    0.0000 N   0  0  0  0  0  0  0  0  0  0  0  0
    5.3461   -3.9254    0.0000 C   0  0  3  0  0  0  0  0  0  0  0  0
    4.3801   -3.6666    0.0000 C   0  0  0  0  0  0  0  0  0  0  0  0
    5.6049   -4.8913    0.0000 C   0  0  0  0  0  0  0  0  0  0  0  0
    6.0532   -3.2183    0.0000 C   0  0  0  0  0  0  0  0  0  0  0  0
    3.6730   -4.3737    0.0000 C   0  0  1  0  0  0  0  0  0  0  0  0
    4.8978   -5.5984    0.0000 C   0  0  0  0  0  0  0  0  0  0  0  0
    3.9318   -5.3396    0.0000 C   0  0  2  0  0  0  0  0  0  0  0  0
    5.7944   -2.2523    0.0000 C   0  0  2  0  0  0  0  0  0  0  0  0
    6.5015   -1.5452    0.0000 C   0  0  2  0  0  0  0  0  0  0  0  0
    6.2426   -0.5793    0.0000 C   0  0  0  0  0  0  0  0  0  0  0  0
    7.9157   -0.1310    0.0000 C   0  0  1  0  0  0  0  0  0  0  0  0
   10.9030    2.4903    0.0000 C   0  0  1  0  0  0  0  0  0  0  0  0
   10.0370    1.9903    0.0000 C   0  0  2  0  0  0  0  0  0  0  0  0
   10.9030    3.4903    0.0000 C   0  0  0  0  0  0  0  0  0  0  0  0
    9.1710    3.4903    0.0000 C   0  0  1  0  0  0  0  0  0  0  0  0
    7.0311    0.3226    0.0000 C   0  0  0  0  0  0  0  0  0  0  0  0
   10.0370    3.9903    0.0000 C   0  0  0  0  0  0  0  0  0  0  0  0
    8.1692    1.4606    0.0000 C   0  0  0  0  0  0  0  0  0  0  0  0
    7.1875    1.3043    0.0000 C   0  0  0  0  0  0  0  0  0  0  0  0
    8.1745   -1.0970    0.0000 C   0  0  0  0  0  0  0  0  0  0  0  0
    6.9498    0.1278    0.0000 C   0  0  0  0  0  0  0  0  0  0  0  0
    8.3049    3.9903    0.0000 C   0  0  0  0  0  0  0  0  0  0  0  0
   10.2958    1.0244    0.0000 C   0  0  0  0  0  0  0  0  0  0  0  0
    9.5887    0.3173    0.0000 C   0  0  0  0  0  0  0  0  0  0  0  0
    6.6909    1.0937    0.0000 C   0  0  2  0  0  0  0  0  0  0  0  0
    7.4570    4.0347    0.0000 C   0  0  1  0  0  0  0  0  0  0  0  0
    6.9570    4.9007    0.0000 C   0  0  0  0  0  0  0  0  0  0  0  0
    7.3980    1.8008    0.0000 C   0  0  0  0  0  0  0  0  0  0  0  0
    7.1392    2.7668    0.0000 C   0  0  0  0  0  0  0  0  0  0  0  0
    5.9911    5.1596    0.0000 C   0  0  0  0  0  0  0  0  0  0  0  0
    6.1733    3.0256    0.0000 C   0  0  2  0  0  0  0  0  0  0  0  0
    5.4662    2.3185    0.0000 C   0  0  0  0  0  0  0  0  0  0  0  0
    5.4911    6.0256    0.0000 C   0  0  0  0  0  0  0  0  0  0  0  0
    3.7591    3.0256    0.0000 C   0  0  1  0  0  0  0  0  0  0  0  0
    4.7591    3.0256    0.0000 C   0  0  0  0  0  0  0  0  0  0  0  0
    3.7591    4.0256    0.0000 C   0  0  0  0  0  0  0  0  0  0  0  0
    2.8930    4.5256    0.0000 C   0  0  1  0  0  0  0  0  0  0  0  0
    4.6251    5.5256    0.0000 C   0  0  0  0  0  0  0  0  0  0  0  0
    2.8930    5.5256    0.0000 C   0  0  0  0  0  0  0  0  0  0  0  0
    3.7591    6.0256    0.0000 C   0  0  0  0  0  0  0  0  0  0  0  0
  1 12  1  0  0  0  0 
  1 23  1  0  0  0  0 
  2 16  1  0  0  0  0 
  2 18  1  0  0  0  0 
  3 14  1  0  0  0  0 
  3 21  1  0  0  0  0 
  3 27  1  0  0  0  0 
  4  5  1  0  0  0  0 
  4  6  1  0  0  0  0 
  4  7  1  0  0  0  0 
  5  8  1  0  0  0  0 
  6  9  1  0  0  0  0 
  7 11  1  0  0  0  0 
  8 10  1  0  0  0  0 
  9 10  1  0  0  0  0 
 11 12  1  0  0  0  0 
 12 13  1  0  0  0  0 
 13 24  1  0  0  0  0 
 14 19  1  0  0  0  0 
 14 23  1  0  0  0  0 
 15 16  1  0  0  0  0 
 15 17  1  0  0  0  0 
 16 26  1  0  0  0  0 
 17 20  1  0  0  0  0 
 18 20  1  0  0  0  0 
 18 25  1  0  0  0  0 
 19 22  1  0  0  0  0 
 21 22  1  0  0  0  0 
 24 28  1  0  0  0  0 
 25 29  1  0  0  0  0 
 26 27  1  0  0  0  0 
 28 31  1  0  0  0  0 
 29 30  1  0  0  0  0 
 30 33  1  0  0  0  0 
 31 32  1  0  0  0  0 
 32 34  1  0  0  0  0 
 33 36  1  0  0  0  0 
 34 35  1  0  0  0  0 
 35 38  1  0  0  0  0 
 36 41  1  0  0  0  0 
 37 38  1  0  0  0  0 
 37 39  1  0  0  0  0 
 39 40  1  0  0  0  0 
 40 42  1  0  0  0  0 
 41 43  1  0  0  0  0 
 42 43  1  0  0  0  0 
M  END
> <PUBCHEM_COMPOUND_CID>
22829210

$$$$
