
  CDK     0202151410

 31 34  0  0  0  0  0  0  0  0999 V2000
    1.4030    8.1200    0.0000 S   0  0  0  0  0  0  0  0  0  0  0  0
    8.3312    5.1200    0.0000 O   0  0  0  0  0  0  0  0  0  0  0  0
    7.4651    3.6200    0.0000 O   0  0  0  0  0  0  0  0  0  0  0  0
    0.9030    7.2540    0.0000 O   0  0  0  0  0  0  0  0  0  0  0  0
    1.9030    8.9860    0.0000 O   0  0  0  0  0  0  0  0  0  0  0  0
   10.0632    3.1200    0.0000 N   0  0  0  0  0  0  0  0  0  0  0  0
   10.0632    5.1200    0.0000 C   0  0  2  0  0  0  0  0  0  0  0  0
    9.1972    4.6200    0.0000 C   0  0  2  0  0  0  0  0  0  0  0  0
   10.9292    4.6200    0.0000 C   0  0  0  0  0  0  0  0  0  0  0  0
    9.1972    3.6200    0.0000 C   0  0  0  0  0  0  0  0  0  0  0  0
   10.9292    3.6200    0.0000 C   0  0  0  0  0  0  0  0  0  0  0  0
   10.0632    6.1200    0.0000 C   0  0  0  0  0  0  0  0  0  0  0  0
   10.9292    6.6200    0.0000 C   0  0  0  0  0  0  0  0  0  0  0  0
    9.1972    6.6200    0.0000 C   0  0  0  0  0  0  0  0  0  0  0  0
    7.4651    4.6200    0.0000 C   0  0  0  0  0  0  0  0  0  0  0  0
   10.9292    7.6200    0.0000 C   0  0  0  0  0  0  0  0  0  0  0  0
    9.1972    7.6200    0.0000 C   0  0  0  0  0  0  0  0  0  0  0  0
   10.0632    8.1200    0.0000 C   0  0  0  0  0  0  0  0  0  0  0  0
    6.5991    5.1200    0.0000 C   0  0  0  0  0  0  0  0  0  0  0  0
    6.5991    6.1200    0.0000 C   0  0  0  0  0  0  0  0  0  0  0  0
    5.7331    4.6200    0.0000 C   0  0  0  0  0  0  0  0  0  0  0  0
    4.8671    6.1200    0.0000 C   0  0  0  0  0  0  0  0  0  0  0  0
    5.7331    6.6200    0.0000 C   0  0  0  0  0  0  0  0  0  0  0  0
    4.8671    5.1200    0.0000 C   0  0  0  0  0  0  0  0  0  0  0  0
    4.0010    6.6200    0.0000 C   0  0  0  0  0  0  0  0  0  0  0  0
    2.2690    7.6200    0.0000 C   0  0  0  0  0  0  0  0  0  0  0  0
    4.0010    7.6200    0.0000 C   0  0  0  0  0  0  0  0  0  0  0  0
    3.1350    6.1200    0.0000 C   0  0  0  0  0  0  0  0  0  0  0  0
    3.1350    8.1200    0.0000 C   0  0  0  0  0  0  0  0  0  0  0  0
    2.2690    6.6200    0.0000 C   0  0  0  0  0  0  0  0  0  0  0  0
    0.5369    8.6200    0.0000 C   0  0  0  0  0  0  0  0  0  0  0  0
  1  4  1  0  0  0  0 
  1  5  1  0  0  0  0 
  1 26  1  0  0  0  0 
  1 31  1  0  0  0  0 
  8  2  1  6  0  0  0 
  2 15  1  0  0  0  0 
  3 15  1  0  0  0  0 
  6 10  1  0  0  0  0 
  6 11  1  0  0  0  0 
  7  8  1  0  0  0  0 
  7  9  1  0  0  0  0 
  7 12  1  1  0  0  0 
  8 10  1  0  0  0  0 
  9 11  1  0  0  0  0 
 12 13  1  0  0  0  0 
 12 14  1  0  0  0  0 
 13 16  1  0  0  0  0 
 14 17  1  0  0  0  0 
 15 19  1  0  0  0  0 
 16 18  1  0  0  0  0 
 17 18  1  0  0  0  0 
 19 20  1  0  0  0  0 
 19 21  1  0  0  0  0 
 20 23  1  0  0  0  0 
 21 24  1  0  0  0  0 
 22 23  1  0  0  0  0 
 22 24  1  0  0  0  0 
 22 25  1  0  0  0  0 
 25 27  1  0  0  0  0 
 25 28  1  0  0  0  0 
 26 29  1  0  0  0  0 
 26 30  1  0  0  0  0 
 27 29  1  0  0  0  0 
 28 30  1  0  0  0  0 
M  END
> <PUBCHEM_COMPOUND_CID>
10288685

$$$$
