
  CDK     0202151410

 19 20  0  0  0  0  0  0  0  0999 V2000
    9.7942    0.6966    0.0000 O   0  0  0  0  0  0  0  0  0  0  0  0
    7.1962   -1.8034    0.0000 O   0  0  0  0  0  0  0  0  0  0  0  0
   11.6065   -0.4987    0.0000 N   0  0  0  0  0  0  0  0  0  0  0  0
    8.9282   -0.8034    0.0000 N   0  0  0  0  0  0  0  0  0  0  0  0
   12.1901   -1.3034    0.0000 N   0  0  0  0  0  0  0  0  0  0  0  0
    8.9282   -1.8034    0.0000 N   0  0  0  0  0  0  0  0  0  0  0  0
    6.3301   -0.3034    0.0000 N   0  0  0  0  0  0  0  0  0  0  0  0
   10.6603   -0.8034    0.0000 C   0  0  0  0  0  0  0  0  0  0  0  0
   10.6603   -1.8034    0.0000 C   0  0  0  0  0  0  0  0  0  0  0  0
   11.9171    0.4518    0.0000 C   0  0  0  0  0  0  0  0  0  0  0  0
    9.7942   -0.3034    0.0000 C   0  0  0  0  0  0  0  0  0  0  0  0
    9.7942   -2.3034    0.0000 C   0  0  0  0  0  0  0  0  0  0  0  0
   11.6065   -2.1081    0.0000 C   0  0  0  0  0  0  0  0  0  0  0  0
    8.0622   -0.3034    0.0000 C   0  0  0  0  0  0  0  0  0  0  0  0
   12.8956    0.6581    0.0000 C   0  0  0  0  0  0  0  0  0  0  0  0
   11.2493    1.1962    0.0000 C   0  0  0  0  0  0  0  0  0  0  0  0
    9.7942   -3.3034    0.0000 C   0  0  0  0  0  0  0  0  0  0  0  0
    7.1962   -0.8034    0.0000 C   0  0  0  0  0  0  0  0  0  0  0  0
    5.4641   -0.8034    0.0000 C   0  0  0  0  0  0  0  0  0  0  0  0
  1 11  1  0  0  0  0 
  2 18  1  0  0  0  0 
  3  5  1  0  0  0  0 
  3  8  1  0  0  0  0 
  3 10  1  0  0  0  0 
  4  6  1  0  0  0  0 
  4 11  1  0  0  0  0 
  4 14  1  0  0  0  0 
  5 13  1  0  0  0  0 
  6 12  1  0  0  0  0 
  7 18  1  0  0  0  0 
  7 19  1  0  0  0  0 
  8  9  1  0  0  0  0 
  8 11  1  0  0  0  0 
  9 12  1  0  0  0  0 
  9 13  1  0  0  0  0 
 10 15  1  0  0  0  0 
 10 16  1  0  0  0  0 
 12 17  1  0  0  0  0 
 14 18  1  0  0  0  0 
M  END
> <PUBCHEM_COMPOUND_CID>
16846817

$$$$

  CDK     0202151410

 19 19  0  0  0  0  0  0  0  0999 V2000
    4.5981    0.8067    0.0000 S   0  0  0  0  0  0  0  0  0  0  0  0
    5.3768    5.1056    0.0000 S   0  0  0  0  0  0  0  0  0  0  0  0
    4.5981   -1.1934    0.0000 O   0  0  0  0  0  0  0  0  0  0  0  0
    5.4071    2.3944    0.0000 N   0  0  0  0  0  0  0  0  0  0  0  0
    4.0981    3.3455    0.0000 N   0  0  0  0  0  0  0  0  0  0  0  0
    3.7891    2.3944    0.0000 N   0  0  0  0  0  0  0  0  0  0  0  0
    2.8660   -1.1934    0.0000 N   0  0  0  0  0  0  0  0  0  0  0  0
    6.5661    1.1073    0.0000 C   0  0  1  0  0  0  0  0  0  0  0  0
    6.3582    2.0854    0.0000 C   0  0  0  0  0  0  0  0  0  0  0  0
    5.0981    3.3455    0.0000 C   0  0  0  0  0  0  0  0  0  0  0  0
    4.5981    1.8067    0.0000 C   0  0  0  0  0  0  0  0  0  0  0  0
    5.6859    4.1545    0.0000 C   0  0  0  0  0  0  0  0  0  0  0  0
    3.7321    0.3067    0.0000 C   0  0  2  0  0  0  0  0  0  0  0  0
    6.6859    4.1545    0.0000 C   0  0  0  0  0  0  0  0  0  0  0  0
    2.8660    0.8067    0.0000 C   0  0  0  0  0  0  0  0  0  0  0  0
    3.7321   -0.6934    0.0000 C   0  0  0  0  0  0  0  0  0  0  0  0
    2.8660   -2.1934    0.0000 C   0  0  0  0  0  0  0  0  0  0  0  0
    2.0000   -2.6934    0.0000 C   0  0  0  0  0  0  0  0  0  0  0  0
    3.7321   -2.6934    0.0000 C   0  0  0  0  0  0  0  0  0  0  0  0
  1 11  1  0  0  0  0 
  1 13  1  0  0  0  0 
  2 12  1  0  0  0  0 
  3 16  1  0  0  0  0 
  4  9  1  0  0  0  0 
  4 10  1  0  0  0  0 
  4 11  1  0  0  0  0 
  5  6  1  0  0  0  0 
  5 10  1  0  0  0  0 
  6 11  1  0  0  0  0 
  7 16  1  0  0  0  0 
  7 17  1  0  0  0  0 
  8  9  1  6  0  0  0 
 10 12  1  0  0  0  0 
 12 14  1  0  0  0  0 
 13 15  1  1  0  0  0 
 13 16  1  0  0  0  0 
 17 18  1  0  0  0  0 
 17 19  1  0  0  0  0 
M  END
> <PUBCHEM_COMPOUND_CID>
35658984

$$$$
