
  CDK     0202151410

 20 20  0  0  0  0  0  0  0  0999 V2000
    4.4700   -0.6095    0.0000 S   0  0  0  0  0  0  0  0  0  0  0  0
    4.7488    1.1505    0.0000 S   0  0  0  0  0  0  0  0  0  0  0  0
    2.5664   -2.1510    0.0000 O   0  0  0  0  0  0  0  0  0  0  0  0
    5.2790   -1.1973    0.0000 O   0  0  0  0  0  0  0  0  0  0  0  0
    3.6610   -0.0217    0.0000 O   0  0  0  0  0  0  0  0  0  0  0  0
    2.6561   -3.4336    0.0000 O   0  0  0  0  0  0  0  0  0  0  0  0
    5.5578    2.7383    0.0000 N   0  0  0  0  0  0  0  0  0  0  0  0
    3.8822   -1.4186    0.0000 N   0  0  0  0  0  0  0  0  0  0  0  0
    4.2890   -2.3321    0.0000 C   0  0  2  0  0  0  0  0  0  0  0  0
    4.6957   -3.2456    0.0000 C   0  0  3  0  0  0  0  0  0  0  0  0
    6.4238    3.2383    0.0000 C   0  0  0  0  0  0  0  0  0  0  0  0
    4.6918    3.2383    0.0000 C   0  0  0  0  0  0  0  0  0  0  0  0
    5.2025   -1.9254    0.0000 C   0  0  0  0  0  0  0  0  0  0  0  0
    4.7655   -4.2432    0.0000 C   0  0  0  0  0  0  0  0  0  0  0  0
    5.5578    1.7383    0.0000 C   0  0  0  0  0  0  0  0  0  0  0  0
    5.6902   -3.3502    0.0000 C   0  0  0  0  0  0  0  0  0  0  0  0
    3.3754   -2.7388    0.0000 C   0  0  0  0  0  0  0  0  0  0  0  0
    5.0578    0.1995    0.0000 C   0  0  0  0  0  0  0  0  0  0  0  0
    6.3668    1.1505    0.0000 C   0  0  0  0  0  0  0  0  0  0  0  0
    6.0578    0.1995    0.0000 C   0  0  0  0  0  0  0  0  0  0  0  0
  1  4  1  0  0  0  0 
  1  5  1  0  0  0  0 
  1  8  1  0  0  0  0 
  1 18  1  0  0  0  0 
  2 15  1  0  0  0  0 
  2 18  1  0  0  0  0 
  3 17  1  0  0  0  0 
  6 17  1  0  0  0  0 
  7 11  1  0  0  0  0 
  7 12  1  0  0  0  0 
  7 15  1  0  0  0  0 
  9  8  1  1  0  0  0 
  9 10  1  0  0  0  0 
  9 13  1  0  0  0  0 
  9 17  1  0  0  0  0 
 10 14  1  0  0  0  0 
 10 16  1  0  0  0  0 
 15 19  1  0  0  0  0 
 18 20  1  0  0  0  0 
 19 20  1  0  0  0  0 
M  END
> <PUBCHEM_COMPOUND_CID>
70334086

$$$$
