61374959
  CDK     0104150955

 24 24  0  0  0  0  0  0  0  0999 V2000
    2.8090    1.3565    0.0000 S   0  0  0  0  0  0  0  0  0  0  0  0
    6.4712    1.0172    0.0000 O   0  0  0  0  0  0  0  0  0  0  0  0
    4.7770    0.6571    0.0000 N   0  0  0  0  0  0  0  0  0  0  0  0
    6.8870   -0.9391    0.0000 N   0  0  0  0  0  0  0  0  0  0  0  0
    7.0949   -1.9172    0.0000 N   0  0  0  0  0  0  0  0  0  0  0  0
    7.3028   -2.8954    0.0000 N   0  0  0  0  0  0  0  0  0  0  0  0
    4.5691    1.6353    0.0000 C   0  0  0  0  0  0  0  0  0  0  0  0
    3.6180    1.9443    0.0000 C   0  0  0  0  0  0  0  0  0  0  0  0
    5.7281    0.3481    0.0000 C   0  0  0  0  0  0  0  0  0  0  0  0
    4.0339   -0.0120    0.0000 C   0  0  0  0  0  0  0  0  0  0  0  0
    3.3090    2.8954    0.0000 C   0  0  0  0  0  0  0  0  0  0  0  0
    5.9360   -0.6300    0.0000 C   0  0  0  0  0  0  0  0  0  0  0  0
    2.3090    2.8954    0.0000 C   0  0  0  0  0  0  0  0  0  0  0  0
    2.0000    1.9443    0.0000 C   0  0  0  0  0  0  0  0  0  0  0  0
    5.1887    1.6569    0.0000 H   0  0  0  0  0  0  0  0  0  0  0  0
    4.6554    2.2492    0.0000 H   0  0  0  0  0  0  0  0  0  0  0  0
    3.6190    0.4487    0.0000 H   0  0  0  0  0  0  0  0  0  0  0  0
    3.5731   -0.4269    0.0000 H   0  0  0  0  0  0  0  0  0  0  0  0
    4.4487   -0.4728    0.0000 H   0  0  0  0  0  0  0  0  0  0  0  0
    3.6734    3.3969    0.0000 H   0  0  0  0  0  0  0  0  0  0  0  0
    5.3164   -0.6517    0.0000 H   0  0  0  0  0  0  0  0  0  0  0  0
    5.8497   -1.2440    0.0000 H   0  0  0  0  0  0  0  0  0  0  0  0
    1.9446    3.3969    0.0000 H   0  0  0  0  0  0  0  0  0  0  0  0
    1.4103    1.7527    0.0000 H   0  0  0  0  0  0  0  0  0  0  0  0
  1  8  1  0  0  0  0 
  1 14  1  0  0  0  0 
  2  9  2  0  0  0  0 
  3  7  1  0  0  0  0 
  3  9  1  0  0  0  0 
  3 10  1  0  0  0  0 
  4  5  2  0  0  0  0 
  4 12  1  0  0  0  0 
  5  6  2  0  0  0  0 
  7  8  1  0  0  0  0 
  7 15  1  0  0  0  0 
  7 16  1  0  0  0  0 
  8 11  2  0  0  0  0 
  9 12  1  0  0  0  0 
 10 17  1  0  0  0  0 
 10 18  1  0  0  0  0 
 10 19  1  0  0  0  0 
 11 13  1  0  0  0  0 
 11 20  1  0  0  0  0 
 12 21  1  0  0  0  0 
 12 22  1  0  0  0  0 
 13 14  2  0  0  0  0 
 13 23  1  0  0  0  0 
 14 24  1  0  0  0  0 
M  CHG  1   5   1
M  CHG  1   6  -1
M  END
> <cdk:Title>
61374959

> <cdk:Remark>
null

> <PUBCHEM_COMPOUND_CID>
61374959

> <PUBCHEM_COMPOUND_CANONICALIZED>
1

> <PUBCHEM_CACTVS_COMPLEXITY>
252

> <PUBCHEM_CACTVS_HBOND_ACCEPTOR>
4

> <PUBCHEM_CACTVS_HBOND_DONOR>
0

> <PUBCHEM_CACTVS_ROTATABLE_BOND>
4

> <PUBCHEM_CACTVS_SUBSKEYS>
AAADccBzoABAAAAAAAAAAAAAAAAAASAAAAAAAAAAAAAAAAABgAAAHgQIAAAACADF0ASyAYMAAAiOACFSEACDAIAgCBBIiBiIBIgIYCKgkRGUAAhghgCoiAYQAAAAAAAAAAAAAAAAAAAAAAAAAAAAAAAAAA==

> <PUBCHEM_IUPAC_OPENEYE_NAME>
2-azido-N-methyl-N-(2-thienylmethyl)acetamide

> <PUBCHEM_IUPAC_CAS_NAME>
2-azido-N-methyl-N-(thiophen-2-ylmethyl)acetamide

> <PUBCHEM_IUPAC_NAME>
2-azido-N-methyl-N-(thiophen-2-ylmethyl)acetamide

> <PUBCHEM_IUPAC_SYSTEMATIC_NAME>
2-azido-N-methyl-N-(thiophen-2-ylmethyl)ethanamide

> <PUBCHEM_IUPAC_TRADITIONAL_NAME>
2-azido-N-methyl-N-(2-thenyl)acetamide

> <PUBCHEM_IUPAC_INCHI>
InChI=1S/C8H10N4OS/c1-12(8(13)5-10-11-9)6-7-3-2-4-14-7/h2-4H,5-6H2,1H3

> <PUBCHEM_IUPAC_INCHIKEY>
NCHKJYNNFDAEQV-UHFFFAOYSA-N

> <PUBCHEM_XLOGP3_AA>
2

> <PUBCHEM_EXACT_MASS>
210.057532

> <PUBCHEM_MOLECULAR_FORMULA>
C8H10N4OS

> <PUBCHEM_MOLECULAR_WEIGHT>
210.2562

> <PUBCHEM_OPENEYE_CAN_SMILES>
CN(CC1=CC=CS1)C(=O)CN=[N+]=[N-]

> <PUBCHEM_OPENEYE_ISO_SMILES>
CN(CC1=CC=CS1)C(=O)CN=[N+]=[N-]

> <PUBCHEM_CACTVS_TPSA>
62.9

> <PUBCHEM_MONOISOTOPIC_WEIGHT>
210.057532

> <PUBCHEM_TOTAL_CHARGE>
0

> <PUBCHEM_HEAVY_ATOM_COUNT>
14

> <PUBCHEM_ATOM_DEF_STEREO_COUNT>
0

> <PUBCHEM_ATOM_UDEF_STEREO_COUNT>
0

> <PUBCHEM_BOND_DEF_STEREO_COUNT>
0

> <PUBCHEM_BOND_UDEF_STEREO_COUNT>
0

> <PUBCHEM_ISOTOPIC_ATOM_COUNT>
0

> <PUBCHEM_COMPONENT_COUNT>
1

> <PUBCHEM_CACTVS_TAUTO_COUNT>
1

> <PUBCHEM_COORDINATE_TYPE>
1

> <PUBCHEM_BONDANNOTATIONS>
1  14  8

$$$$
