
  CDK     0224152114

 19 21  0  0  0  0  0  0  0  0999 V2000
    7.2764    1.2938    0.0000 S   0  0  0  0  0  0  0  0  0  0  0  0
   10.8600   -1.2430    0.0000 O   0  0  0  0  0  0  0  0  0  0  0  0
    7.2764   -0.3157    0.0000 N   0  0  0  0  0  0  0  0  0  0  0  0
    8.8600    0.4890    0.0000 N   0  0  0  0  0  0  0  0  0  0  0  0
    6.3301    0.9890    0.0000 C   0  0  0  0  0  0  0  0  0  0  0  0
    6.3301   -0.0110    0.0000 C   0  0  0  0  0  0  0  0  0  0  0  0
    4.5981    0.9890    0.0000 C   0  0  0  0  0  0  0  0  0  0  0  0
    5.4641    1.4890    0.0000 C   0  0  0  0  0  0  0  0  0  0  0  0
    5.4641   -0.5110    0.0000 C   0  0  0  0  0  0  0  0  0  0  0  0
    7.8600    0.4890    0.0000 C   0  0  0  0  0  0  0  0  0  0  0  0
    4.5981   -0.0110    0.0000 C   0  0  0  0  0  0  0  0  0  0  0  0
   10.3600   -0.3770    0.0000 C   0  0  0  0  0  0  0  0  0  0  0  0
    9.3600   -0.3770    0.0000 C   0  0  0  0  0  0  0  0  0  0  0  0
   11.8600   -1.2430    0.0000 C   0  0  0  0  0  0  0  0  0  0  0  0
   12.3600   -0.3770    0.0000 C   0  0  0  0  0  0  0  0  0  0  0  0
   12.3600   -2.1090    0.0000 C   0  0  0  0  0  0  0  0  0  0  0  0
   13.3600   -0.3770    0.0000 C   0  0  0  0  0  0  0  0  0  0  0  0
   13.3600   -2.1090    0.0000 C   0  0  0  0  0  0  0  0  0  0  0  0
   13.8600   -1.2430    0.0000 C   0  0  0  0  0  0  0  0  0  0  0  0
  1  5  1  0  0  0  0 
  1 10  1  0  0  0  0 
  2 12  1  0  0  0  0 
  2 14  1  0  0  0  0 
  3  6  1  0  0  0  0 
  3 10  1  0  0  0  0 
  4 10  1  0  0  0  0 
  4 13  1  0  0  0  0 
  5  6  1  0  0  0  0 
  5  8  1  0  0  0  0 
  6  9  1  0  0  0  0 
  7  8  1  0  0  0  0 
  7 11  1  0  0  0  0 
  9 11  1  0  0  0  0 
 12 13  1  0  0  0  0 
 14 15  1  0  0  0  0 
 14 16  1  0  0  0  0 
 15 17  1  0  0  0  0 
 16 18  1  0  0  0  0 
 17 19  1  0  0  0  0 
 18 19  1  0  0  0  0 
M  END
> <PUBCHEM_COMPOUND_CID>
30371023

$$$$

  CDK     0224152114

 19 21  0  0  0  0  0  0  0  0999 V2000
    5.6808    1.8399    0.0000 N   0  0  0  0  0  0  0  0  0  0  0  0
    4.7026    1.6320    0.0000 N   0  0  0  0  0  0  0  0  0  0  0  0
    3.7320   -0.8626    0.0000 N   0  0  0  0  0  0  0  0  0  0  0  0
    3.7320   -3.8626    0.0000 N   0  0  0  0  0  0  0  0  0  0  0  0
    6.0875    2.7534    0.0000 C   0  0  0  0  0  0  0  0  0  0  0  0
    7.0656    2.9613    0.0000 C   0  0  0  0  0  0  0  0  0  0  0  0
    5.5875    3.6194    0.0000 C   0  0  0  0  0  0  0  0  0  0  0  0
    7.1702    3.9558    0.0000 C   0  0  0  0  0  0  0  0  0  0  0  0
    6.2566    4.3626    0.0000 C   0  0  0  0  0  0  0  0  0  0  0  0
    6.1808    0.9738    0.0000 C   0  0  0  0  0  0  0  0  0  0  0  0
    4.5981    0.6374    0.0000 C   0  0  0  0  0  0  0  0  0  0  0  0
    5.5116    0.2307    0.0000 C   0  0  0  0  0  0  0  0  0  0  0  0
    3.7320    0.1374    0.0000 C   0  0  0  0  0  0  0  0  0  0  0  0
    2.8660   -1.3626    0.0000 C   0  0  3  0  0  0  0  0  0  0  0  0
    2.8660   -2.3626    0.0000 C   0  0  0  0  0  0  0  0  0  0  0  0
    2.0000   -2.8626    0.0000 C   0  0  0  0  0  0  0  0  0  0  0  0
    3.7320   -2.8626    0.0000 C   0  0  0  0  0  0  0  0  0  0  0  0
    2.0000   -3.8626    0.0000 C   0  0  0  0  0  0  0  0  0  0  0  0
    2.8660   -4.3626    0.0000 C   0  0  0  0  0  0  0  0  0  0  0  0
  1  2  1  0  0  0  0 
  1  5  1  0  0  0  0 
  1 10  1  0  0  0  0 
  2 11  1  0  0  0  0 
  3 13  1  0  0  0  0 
  3 14  1  0  0  0  0 
  4 17  1  0  0  0  0 
  4 19  1  0  0  0  0 
  5  6  1  0  0  0  0 
  5  7  1  0  0  0  0 
  6  8  1  0  0  0  0 
  7  9  1  0  0  0  0 
  8  9  1  0  0  0  0 
 10 12  1  0  0  0  0 
 11 12  1  0  0  0  0 
 11 13  1  0  0  0  0 
 14 15  1  0  0  0  0 
 15 16  1  0  0  0  0 
 15 17  1  0  0  0  0 
 16 18  1  0  0  0  0 
 18 19  1  0  0  0  0 
M  END
> <PUBCHEM_COMPOUND_CID>
64799108

$$$$

  CDK     0224152114

 19 21  0  0  0  0  0  0  0  0999 V2000
    7.2764    1.1230    0.0000 N   0  0  0  0  0  0  0  0  0  0  0  0
    7.2764   -0.4864    0.0000 N   0  0  0  0  0  0  0  0  0  0  0  0
   10.8600   -1.4138    0.0000 N   0  0  0  0  0  0  0  0  0  0  0  0
    6.3301    0.8183    0.0000 C   0  0  0  0  0  0  0  0  0  0  0  0
    7.8600    0.3183    0.0000 C   0  0  0  0  0  0  0  0  0  0  0  0
    6.3301   -0.1817    0.0000 C   0  0  0  0  0  0  0  0  0  0  0  0
    8.8600    0.3183    0.0000 C   0  0  0  0  0  0  0  0  0  0  0  0
    4.5981   -0.1817    0.0000 C   0  0  0  0  0  0  0  0  0  0  0  0
    5.4641   -0.6817    0.0000 C   0  0  0  0  0  0  0  0  0  0  0  0
    5.4641    1.3183    0.0000 C   0  0  0  0  0  0  0  0  0  0  0  0
    9.3600   -0.5477    0.0000 C   0  0  0  0  0  0  0  0  0  0  0  0
    4.5981    0.8183    0.0000 C   0  0  0  0  0  0  0  0  0  0  0  0
   10.3600   -0.5477    0.0000 C   0  0  0  0  0  0  0  0  0  0  0  0
   11.8600   -1.4138    0.0000 C   0  0  0  0  0  0  0  0  0  0  0  0
   13.8600   -1.4138    0.0000 C   0  0  0  0  0  0  0  0  0  0  0  0
   12.3600   -2.2798    0.0000 C   0  0  0  0  0  0  0  0  0  0  0  0
   12.3600   -0.5477    0.0000 C   0  0  0  0  0  0  0  0  0  0  0  0
   13.3600   -2.2798    0.0000 C   0  0  0  0  0  0  0  0  0  0  0  0
   13.3600   -0.5477    0.0000 C   0  0  0  0  0  0  0  0  0  0  0  0
  1  4  1  0  0  0  0 
  1  5  1  0  0  0  0 
  2  5  1  0  0  0  0 
  2  6  1  0  0  0  0 
  3 13  1  0  0  0  0 
  3 14  1  0  0  0  0 
  4  6  1  0  0  0  0 
  4 10  1  0  0  0  0 
  5  7  1  0  0  0  0 
  6  9  1  0  0  0  0 
  7 11  1  0  0  0  0 
  8  9  1  0  0  0  0 
  8 12  1  0  0  0  0 
 10 12  1  0  0  0  0 
 11 13  1  0  0  0  0 
 14 16  1  0  0  0  0 
 14 17  1  0  0  0  0 
 15 18  1  0  0  0  0 
 15 19  1  0  0  0  0 
 16 18  1  0  0  0  0 
 17 19  1  0  0  0  0 
M  END
> <PUBCHEM_COMPOUND_CID>
41641047

$$$$

  CDK     0224152114

 19 21  0  0  0  0  0  0  0  0999 V2000
    6.3776   -0.1192    0.0000 S   0  0  0  0  0  0  0  0  0  0  0  0
    6.5468    1.4899    0.0000 N   0  0  0  0  0  0  0  0  0  0  0  0
    8.0413    0.5194    0.0000 N   0  0  0  0  0  0  0  0  0  0  0  0
    8.2224    2.2419    0.0000 N   0  0  0  0  0  0  0  0  0  0  0  0
    5.4641    0.2875    0.0000 C   0  0  0  0  0  0  0  0  0  0  0  0
    5.5686    1.2820    0.0000 C   0  0  0  0  0  0  0  0  0  0  0  0
    7.0468    0.6239    0.0000 C   0  0  0  0  0  0  0  0  0  0  0  0
    4.5981   -0.2125    0.0000 C   0  0  0  0  0  0  0  0  0  0  0  0
    4.5981   -1.2125    0.0000 C   0  0  0  0  0  0  0  0  0  0  0  0
    3.7320   -1.7125    0.0000 C   0  0  0  0  0  0  0  0  0  0  0  0
    5.4641   -1.7125    0.0000 C   0  0  0  0  0  0  0  0  0  0  0  0
    3.7320   -2.7125    0.0000 C   0  0  0  0  0  0  0  0  0  0  0  0
    5.4641   -2.7125    0.0000 C   0  0  0  0  0  0  0  0  0  0  0  0
    4.5981   -3.2125    0.0000 C   0  0  0  0  0  0  0  0  0  0  0  0
    8.6291    1.3284    0.0000 C   0  0  0  0  0  0  0  0  0  0  0  0
    9.6236    1.2239    0.0000 C   0  0  0  0  0  0  0  0  0  0  0  0
   10.2114    2.0329    0.0000 C   0  0  0  0  0  0  0  0  0  0  0  0
    8.8101    3.0510    0.0000 C   0  0  0  0  0  0  0  0  0  0  0  0
    9.8047    2.9464    0.0000 C   0  0  0  0  0  0  0  0  0  0  0  0
  1  5  1  0  0  0  0 
  1  7  1  0  0  0  0 
  2  6  1  0  0  0  0 
  2  7  1  0  0  0  0 
  3  7  1  0  0  0  0 
  3 15  1  0  0  0  0 
  4 15  1  0  0  0  0 
  4 18  1  0  0  0  0 
  5  6  1  0  0  0  0 
  5  8  1  0  0  0  0 
  8  9  1  0  0  0  0 
  9 10  1  0  0  0  0 
  9 11  1  0  0  0  0 
 10 12  1  0  0  0  0 
 11 13  1  0  0  0  0 
 12 14  1  0  0  0  0 
 13 14  1  0  0  0  0 
 15 16  1  0  0  0  0 
 16 17  1  0  0  0  0 
 17 19  1  0  0  0  0 
 18 19  1  0  0  0  0 
M  END
> <PUBCHEM_COMPOUND_CID>
18841895

$$$$

  CDK     0224152114

 19 21  0  0  0  0  0  0  0  0999 V2000
    7.6172    0.6020    0.0000 O   0  0  0  0  0  0  0  0  0  0  0  0
   10.2153    1.1020    0.0000 N   0  0  0  0  0  0  0  0  0  0  0  0
    4.3025    0.2656    0.0000 N   0  0  0  0  0  0  0  0  0  0  0  0
   11.9474    2.1020    0.0000 C   0  0  1  0  0  0  0  0  0  0  0  0
   11.9474    1.1020    0.0000 C   0  0  1  0  0  0  0  0  0  0  0  0
   12.8413    2.6366    0.0000 C   0  0  0  0  0  0  0  0  0  0  0  0
   12.8413    0.5673    0.0000 C   0  0  0  0  0  0  0  0  0  0  0  0
   11.0813    2.6020    0.0000 C   0  0  0  0  0  0  0  0  0  0  0  0
   11.0813    0.6020    0.0000 C   0  0  0  0  0  0  0  0  0  0  0  0
   13.7474    2.1228    0.0000 C   0  0  0  0  0  0  0  0  0  0  0  0
   13.7474    1.0811    0.0000 C   0  0  0  0  0  0  0  0  0  0  0  0
   10.2153    2.1020    0.0000 C   0  0  0  0  0  0  0  0  0  0  0  0
    9.3493    0.6020    0.0000 C   0  0  0  0  0  0  0  0  0  0  0  0
    8.4833    1.1020    0.0000 C   0  0  0  0  0  0  0  0  0  0  0  0
    6.7512    1.1020    0.0000 C   0  0  0  0  0  0  0  0  0  0  0  0
    5.8852    0.6020    0.0000 C   0  0  0  0  0  0  0  0  0  0  0  0
    5.7807   -0.3926    0.0000 C   0  0  0  0  0  0  0  0  0  0  0  0
    4.9716    1.0087    0.0000 C   0  0  0  0  0  0  0  0  0  0  0  0
    4.8025   -0.6005    0.0000 C   0  0  0  0  0  0  0  0  0  0  0  0
  1 14  1  0  0  0  0 
  1 15  1  0  0  0  0 
  2  9  1  0  0  0  0 
  2 12  1  0  0  0  0 
  2 13  1  0  0  0  0 
  3 18  1  0  0  0  0 
  3 19  1  0  0  0  0 
  4  5  1  0  0  0  0 
  4  6  1  0  0  0  0 
  4  8  1  0  0  0  0 
  5  7  1  0  0  0  0 
  5  9  1  0  0  0  0 
  6 10  1  0  0  0  0 
  7 11  1  0  0  0  0 
  8 12  1  0  0  0  0 
 10 11  1  0  0  0  0 
 13 14  1  0  0  0  0 
 15 16  1  0  0  0  0 
 16 17  1  0  0  0  0 
 16 18  1  0  0  0  0 
 17 19  1  0  0  0  0 
M  END
> <PUBCHEM_COMPOUND_CID>
8576134

$$$$

  CDK     0224152114

 19 21  0  0  0  0  0  0  0  0999 V2000
    2.0000   -3.9330    0.0000 O   0  0  0  0  0  0  0  0  0  0  0  0
    5.4641    2.0670    0.0000 N   0  0  0  0  0  0  0  0  0  0  0  0
    3.7320   -2.9330    0.0000 N   0  0  0  0  0  0  0  0  0  0  0  0
    7.3301    3.5670    0.0000 C   0  0  2  0  0  0  0  0  0  0  0  0
    6.3301    3.5670    0.0000 C   0  0  2  0  0  0  0  0  0  0  0  0
    6.8301    4.4330    0.0000 C   0  0  0  0  0  0  0  0  0  0  0  0
    5.4641    3.0670    0.0000 C   0  0  0  0  0  0  0  0  0  0  0  0
    4.5981    1.5670    0.0000 C   0  0  0  0  0  0  0  0  0  0  0  0
    4.5981    0.5670    0.0000 C   0  0  0  0  0  0  0  0  0  0  0  0
    4.5981   -2.4330    0.0000 C   0  0  0  0  0  0  0  0  0  0  0  0
    2.8660   -2.4330    0.0000 C   0  0  0  0  0  0  0  0  0  0  0  0
    3.7320   -3.9330    0.0000 C   0  0  0  0  0  0  0  0  0  0  0  0
    4.5981   -1.4330    0.0000 C   0  0  0  0  0  0  0  0  0  0  0  0
    2.8660   -4.4330    0.0000 C   0  0  0  0  0  0  0  0  0  0  0  0
    2.0000   -2.9330    0.0000 C   0  0  0  0  0  0  0  0  0  0  0  0
    3.7320    0.0670    0.0000 C   0  0  0  0  0  0  0  0  0  0  0  0
    5.4641    0.0670    0.0000 C   0  0  0  0  0  0  0  0  0  0  0  0
    3.7320   -0.9330    0.0000 C   0  0  0  0  0  0  0  0  0  0  0  0
    5.4641   -0.9330    0.0000 C   0  0  0  0  0  0  0  0  0  0  0  0
  1 14  1  0  0  0  0 
  1 15  1  0  0  0  0 
  2  7  1  0  0  0  0 
  2  8  1  0  0  0  0 
  3 10  1  0  0  0  0 
  3 11  1  0  0  0  0 
  3 12  1  0  0  0  0 
  4  5  1  0  0  0  0 
  4  6  1  0  0  0  0 
  5  6  1  0  0  0  0 
  5  7  1  1  0  0  0 
  8  9  1  0  0  0  0 
  9 16  1  0  0  0  0 
  9 17  1  0  0  0  0 
 10 13  1  0  0  0  0 
 11 15  1  0  0  0  0 
 12 14  1  0  0  0  0 
 13 18  1  0  0  0  0 
 13 19  1  0  0  0  0 
 16 18  1  0  0  0  0 
 17 19  1  0  0  0  0 
M  END
> <PUBCHEM_COMPOUND_CID>
29881511

$$$$
