
  CDK     0202151410

 60 58  0  0  0  0  0  0  0  0999 V2000
    9.4282    4.6340    0.0000 F   0  0  0  0  0  0  0  0  0  0  0  0
    6.6962    4.6340    0.0000 F   0  0  0  0  0  0  0  0  0  0  0  0
    7.6962    6.3660    0.0000 F   0  0  0  0  0  0  0  0  0  0  0  0
    7.0622    4.0000    0.0000 F   0  0  0  0  0  0  0  0  0  0  0  0
    9.0622    4.0000    0.0000 F   0  0  0  0  0  0  0  0  0  0  0  0
    8.4282    6.3660    0.0000 F   0  0  0  0  0  0  0  0  0  0  0  0
   10.2942    5.1340    0.0000 F   0  0  0  0  0  0  0  0  0  0  0  0
    9.2942    6.8660    0.0000 F   0  0  0  0  0  0  0  0  0  0  0  0
    5.8301    5.1340    0.0000 F   0  0  0  0  0  0  0  0  0  0  0  0
    6.8301    6.8660    0.0000 F   0  0  0  0  0  0  0  0  0  0  0  0
    7.0622    3.0000    0.0000 F   0  0  0  0  0  0  0  0  0  0  0  0
    9.0622    3.0000    0.0000 F   0  0  0  0  0  0  0  0  0  0  0  0
    4.9641    5.6340    0.0000 F   0  0  0  0  0  0  0  0  0  0  0  0
    5.9641    7.3660    0.0000 F   0  0  0  0  0  0  0  0  0  0  0  0
    7.0622    2.0000    0.0000 F   0  0  0  0  0  0  0  0  0  0  0  0
    9.0622    2.0000    0.0000 F   0  0  0  0  0  0  0  0  0  0  0  0
   11.1603    5.6340    0.0000 F   0  0  0  0  0  0  0  0  0  0  0  0
   10.1603    7.3660    0.0000 F   0  0  0  0  0  0  0  0  0  0  0  0
   12.3923    7.5000    0.0000 F   0  0  0  0  0  0  0  0  0  0  0  0
   12.0263    6.1340    0.0000 F   0  0  0  0  0  0  0  0  0  0  0  0
   11.0263    7.8660    0.0000 F   0  0  0  0  0  0  0  0  0  0  0  0
    3.7320    7.5000    0.0000 F   0  0  0  0  0  0  0  0  0  0  0  0
    4.0981    6.1340    0.0000 F   0  0  0  0  0  0  0  0  0  0  0  0
    5.0981    7.8660    0.0000 F   0  0  0  0  0  0  0  0  0  0  0  0
    8.0622    0.0000    0.0000 F   0  0  0  0  0  0  0  0  0  0  0  0
    7.0622    1.0000    0.0000 F   0  0  0  0  0  0  0  0  0  0  0  0
    9.0622    1.0000    0.0000 F   0  0  0  0  0  0  0  0  0  0  0  0
    7.1962   14.6760    0.0000 O   0  0  0  0  0  0  0  0  0  0  0  0
    8.0622   10.1760    0.0000 O   0  0  0  0  0  0  0  0  0  0  0  0
    5.4641   11.6760    0.0000 O   0  0  0  0  0  0  0  0  0  0  0  0
    1.7320    9.2895    0.0000 O   0  0  0  0  0  0  0  0  0  0  0  0
    0.0000    8.2895    0.0000 O   0  0  0  0  0  0  0  0  0  0  0  0
    8.0622    5.0000    0.0000 N   0  0  0  0  0  0  0  0  0  0  0  0
    8.9282   15.6760    0.0000 N   0  0  0  0  0  0  0  0  0  0  0  0
    8.9282    5.5000    0.0000 C   0  0  0  0  0  0  0  0  0  0  0  0
    7.1962    5.5000    0.0000 C   0  0  0  0  0  0  0  0  0  0  0  0
    8.0622    4.0000    0.0000 C   0  0  0  0  0  0  0  0  0  0  0  0
    9.7942    6.0000    0.0000 C   0  0  0  0  0  0  0  0  0  0  0  0
    6.3301    6.0000    0.0000 C   0  0  0  0  0  0  0  0  0  0  0  0
    8.0622    3.0000    0.0000 C   0  0  0  0  0  0  0  0  0  0  0  0
    5.4641    6.5000    0.0000 C   0  0  0  0  0  0  0  0  0  0  0  0
    8.0622    2.0000    0.0000 C   0  0  0  0  0  0  0  0  0  0  0  0
   10.6603    6.5000    0.0000 C   0  0  0  0  0  0  0  0  0  0  0  0
    9.7942   16.1760    0.0000 C   0  0  0  0  0  0  0  0  0  0  0  0
   11.5263    7.0000    0.0000 C   0  0  0  0  0  0  0  0  0  0  0  0
    4.5981    7.0000    0.0000 C   0  0  0  0  0  0  0  0  0  0  0  0
    8.0622    1.0000    0.0000 C   0  0  0  0  0  0  0  0  0  0  0  0
    8.9282   14.6760    0.0000 C   0  0  0  0  0  0  0  0  0  0  0  0
    8.0622   14.1760    0.0000 C   0  0  3  0  0  0  0  0  0  0  0  0
   10.6603   16.6760    0.0000 C   0  0  0  0  0  0  0  0  0  0  0  0
    9.2942   17.0421    0.0000 C   0  0  0  0  0  0  0  0  0  0  0  0
   10.2942   15.3100    0.0000 C   0  0  0  0  0  0  0  0  0  0  0  0
    8.0622   13.1760    0.0000 C   0  0  0  0  0  0  0  0  0  0  0  0
    7.1962   12.6760    0.0000 C   0  0  0  0  0  0  0  0  0  0  0  0
    8.9282   12.6760    0.0000 C   0  0  0  0  0  0  0  0  0  0  0  0
    7.1962   11.6760    0.0000 C   0  0  0  0  0  0  0  0  0  0  0  0
    8.9282   11.6760    0.0000 C   0  0  0  0  0  0  0  0  0  0  0  0
    8.0622   11.1760    0.0000 C   0  0  0  0  0  0  0  0  0  0  0  0
    6.3301   11.1760    0.0000 C   0  0  0  0  0  0  0  0  0  0  0  0
    0.8660    8.7895    0.0000 C   0  0  0  0  0  0  0  0  0  0  0  0
  1 35  1  0  0  0  0 
  2 36  1  0  0  0  0 
  3 36  1  0  0  0  0 
  4 37  1  0  0  0  0 
  5 37  1  0  0  0  0 
  6 35  1  0  0  0  0 
  7 38  1  0  0  0  0 
  8 38  1  0  0  0  0 
  9 39  1  0  0  0  0 
 10 39  1  0  0  0  0 
 11 40  1  0  0  0  0 
 12 40  1  0  0  0  0 
 13 41  1  0  0  0  0 
 14 41  1  0  0  0  0 
 15 42  1  0  0  0  0 
 16 42  1  0  0  0  0 
 17 43  1  0  0  0  0 
 18 43  1  0  0  0  0 
 19 45  1  0  0  0  0 
 20 45  1  0  0  0  0 
 21 45  1  0  0  0  0 
 22 46  1  0  0  0  0 
 23 46  1  0  0  0  0 
 24 46  1  0  0  0  0 
 25 47  1  0  0  0  0 
 26 47  1  0  0  0  0 
 27 47  1  0  0  0  0 
 28 49  1  0  0  0  0 
 29 58  1  0  0  0  0 
 30 59  1  0  0  0  0 
 31 60  1  0  0  0  0 
 32 60  1  0  0  0  0 
 33 35  1  0  0  0  0 
 33 36  1  0  0  0  0 
 33 37  1  0  0  0  0 
 34 44  1  0  0  0  0 
 34 48  1  0  0  0  0 
 35 38  1  0  0  0  0 
 36 39  1  0  0  0  0 
 37 40  1  0  0  0  0 
 38 43  1  0  0  0  0 
 39 41  1  0  0  0  0 
 40 42  1  0  0  0  0 
 41 46  1  0  0  0  0 
 42 47  1  0  0  0  0 
 43 45  1  0  0  0  0 
 44 50  1  0  0  0  0 
 44 51  1  0  0  0  0 
 44 52  1  0  0  0  0 
 48 49  1  0  0  0  0 
 49 53  1  0  0  0  0 
 53 54  1  0  0  0  0 
 53 55  1  0  0  0  0 
 54 56  1  0  0  0  0 
 55 57  1  0  0  0  0 
 56 58  1  0  0  0  0 
 56 59  1  0  0  0  0 
 57 58  1  0  0  0  0 
M  END
> <PUBCHEM_COMPOUND_CID>
16220171

$$$$
