
  CDK     0202151410

 12 12  0  0  0  0  0  0  0  0999 V2000
    4.6783   -3.5990    0.0000 S   0  0  0  0  0  0  0  0  0  0  0  0
    7.5673    1.2745    0.0000 N   0  0  0  0  0  0  0  0  0  0  0  0
    4.9889   -1.0390    0.0000 N   0  0  0  0  0  0  0  0  0  0  0  0
    5.2619   -2.7942    0.0000 N   0  0  0  0  0  0  0  0  0  0  0  0
    6.2781    0.1178    0.0000 C   0  0  0  0  0  0  0  0  0  0  0  0
    7.2566    0.3240    0.0000 C   0  0  0  0  0  0  0  0  0  0  0  0
    5.9674   -0.8327    0.0000 C   0  0  0  0  0  0  0  0  0  0  0  0
    8.5458    1.4807    0.0000 C   0  0  0  0  0  0  0  0  0  0  0  0
    4.6783   -1.9895    0.0000 C   0  0  0  0  0  0  0  0  0  0  0  0
    3.7320   -2.2942    0.0000 C   0  0  0  0  0  0  0  0  0  0  0  0
    3.7320   -3.2942    0.0000 C   0  0  0  0  0  0  0  0  0  0  0  0
    2.8660   -1.7942    0.0000 C   0  0  0  0  0  0  0  0  0  0  0  0
  1  4  1  0  0  0  0 
  1 11  1  0  0  0  0 
  2  6  1  0  0  0  0 
  2  8  1  0  0  0  0 
  3  7  1  0  0  0  0 
  3  9  1  0  0  0  0 
  4  9  1  0  0  0  0 
  5  6  1  0  0  0  0 
  5  7  1  0  0  0  0 
  9 10  1  0  0  0  0 
 10 11  1  0  0  0  0 
 10 12  1  0  0  0  0 
M  END
> <PUBCHEM_COMPOUND_CID>
57436562

$$$$
