
  CDK     0202151410

 38 39  0  0  0  0  0  0  0  0999 V2000
    7.4674   -1.8041    0.0000 O   0  0  0  0  0  0  0  0  0  0  0  0
    9.1710    2.4903    0.0000 O   0  0  0  0  0  0  0  0  0  0  0  0
   10.9030    1.4903    0.0000 O   0  0  0  0  0  0  0  0  0  0  0  0
    9.1404   -1.3558    0.0000 O   0  0  0  0  0  0  0  0  0  0  0  0
    7.2086   -0.8381    0.0000 O   0  0  0  0  0  0  0  0  0  0  0  0
   11.2617    0.7656    0.0000 O   0  0  0  0  0  0  0  0  0  0  0  0
    9.8475   -0.6487    0.0000 O   0  0  0  0  0  0  0  0  0  0  0  0
    8.6228    0.5761    0.0000 N   0  0  0  0  0  0  0  0  0  0  0  0
    5.3461   -3.9254    0.0000 C   0  0  3  0  0  0  0  0  0  0  0  0
    6.0532   -3.2183    0.0000 C   0  0  0  0  0  0  0  0  0  0  0  0
    5.7944   -2.2523    0.0000 C   0  0  2  0  0  0  0  0  0  0  0  0
    6.5015   -1.5452    0.0000 C   0  0  2  0  0  0  0  0  0  0  0  0
    4.8284   -1.9935    0.0000 C   0  0  0  0  0  0  0  0  0  0  0  0
    6.2426   -0.5793    0.0000 C   0  0  0  0  0  0  0  0  0  0  0  0
    7.9157   -0.1310    0.0000 C   0  0  1  0  0  0  0  0  0  0  0  0
   10.9030    2.4903    0.0000 C   0  0  1  0  0  0  0  0  0  0  0  0
   10.0370    1.9903    0.0000 C   0  0  2  0  0  0  0  0  0  0  0  0
   10.9030    3.4903    0.0000 C   0  0  0  0  0  0  0  0  0  0  0  0
    9.1710    3.4903    0.0000 C   0  0  1  0  0  0  0  0  0  0  0  0
    7.0311    0.3226    0.0000 C   0  0  0  0  0  0  0  0  0  0  0  0
   10.0370    3.9903    0.0000 C   0  0  0  0  0  0  0  0  0  0  0  0
    8.1692    1.4606    0.0000 C   0  0  0  0  0  0  0  0  0  0  0  0
    7.1875    1.3043    0.0000 C   0  0  0  0  0  0  0  0  0  0  0  0
    8.1745   -1.0970    0.0000 C   0  0  0  0  0  0  0  0  0  0  0  0
    6.9498    0.1278    0.0000 C   0  0  0  0  0  0  0  0  0  0  0  0
    8.3049    3.9903    0.0000 C   0  0  0  0  0  0  0  0  0  0  0  0
   10.2958    1.0244    0.0000 C   0  0  0  0  0  0  0  0  0  0  0  0
    9.5887    0.3173    0.0000 C   0  0  0  0  0  0  0  0  0  0  0  0
    6.6909    1.0937    0.0000 C   0  0  2  0  0  0  0  0  0  0  0  0
    7.4570    4.0347    0.0000 C   0  0  1  0  0  0  0  0  0  0  0  0
    5.7250    1.3525    0.0000 C   0  0  0  0  0  0  0  0  0  0  0  0
    6.9570    4.9007    0.0000 C   0  0  0  0  0  0  0  0  0  0  0  0
    7.3980    1.8008    0.0000 C   0  0  0  0  0  0  0  0  0  0  0  0
    7.1392    2.7668    0.0000 C   0  0  0  0  0  0  0  0  0  0  0  0
    6.1733    3.0256    0.0000 C   0  0  2  0  0  0  0  0  0  0  0  0
    7.8463    3.4739    0.0000 C   0  0  0  0  0  0  0  0  0  0  0  0
    5.4662    2.3185    0.0000 C   0  0  0  0  0  0  0  0  0  0  0  0
    4.7591    3.0256    0.0000 C   0  0  0  0  0  0  0  0  0  0  0  0
  1 12  1  0  0  0  0 
  1 24  1  0  0  0  0 
  2 17  1  0  0  0  0 
  2 19  1  0  0  0  0 
 17  3  1  1  0  0  0 
  4 24  1  0  0  0  0 
  5 25  1  0  0  0  0 
  6 27  1  0  0  0  0 
  7 28  1  0  0  0  0 
  8 15  1  0  0  0  0 
  8 22  1  0  0  0  0 
  8 28  1  0  0  0  0 
  9 10  1  0  0  0  0 
 10 11  1  0  0  0  0 
 11 12  1  0  0  0  0 
 11 13  1  1  0  0  0 
 12 14  1  0  0  0  0 
 14 25  1  0  0  0  0 
 15 20  1  0  0  0  0 
 15 24  1  0  0  0  0 
 16 17  1  0  0  0  0 
 16 18  1  0  0  0  0 
 17 27  1  0  0  0  0 
 18 21  1  0  0  0  0 
 19 21  1  0  0  0  0 
 19 26  1  0  0  0  0 
 20 23  1  0  0  0  0 
 22 23  1  0  0  0  0 
 25 29  1  0  0  0  0 
 26 30  1  0  0  0  0 
 27 28  1  0  0  0  0 
 29 31  1  6  0  0  0 
 29 33  1  0  0  0  0 
 30 32  1  0  0  0  0 
 33 34  1  0  0  0  0 
 34 35  1  0  0  0  0 
 34 36  1  0  0  0  0 
 35 37  1  0  0  0  0 
 37 38  1  0  0  0  0 
M  END
> <PUBCHEM_COMPOUND_CID>
22829210

$$$$
