
  CDK     1223141415

 13 15  0  0  0  0  0  0  0  0999 V2000
    5.8507    1.5952    0.0000 N   0  0  0  0  0  0  0  0  0  0  0  0
    3.6452   -0.5196    0.0000 C   0  0  3  0  0  0  0  0  0  0  0  0
    4.6657   -0.7284    0.0000 C   0  0  0  0  0  0  0  0  0  0  0  0
    3.3233    0.4710    0.0000 C   0  0  0  0  0  0  0  0  0  0  0  0
    5.3507    0.0564    0.0000 C   0  0  0  0  0  0  0  0  0  0  0  0
    4.0263    1.2397    0.0000 C   0  0  0  0  0  0  0  0  0  0  0  0
    5.0417    1.0074    0.0000 C   0  0  0  0  0  0  0  0  0  0  0  0
    6.3507    0.0564    0.0000 C   0  0  0  0  0  0  0  0  0  0  0  0
    6.6597    1.0074    0.0000 C   0  0  0  0  0  0  0  0  0  0  0  0
    7.0356   -0.7284    0.0000 C   0  0  0  0  0  0  0  0  0  0  0  0
    7.6751    1.2397    0.0000 C   0  0  0  0  0  0  0  0  0  0  0  0
    8.0562   -0.5196    0.0000 C   0  0  0  0  0  0  0  0  0  0  0  0
    8.3780    0.4710    0.0000 C   0  0  0  0  0  0  0  0  0  0  0  0
  1  7  1  0  0  0  0 
  1  9  1  0  0  0  0 
  2  3  1  0  0  0  0 
  2  4  1  0  0  0  0 
  3  5  1  0  0  0  0 
  4  6  1  0  0  0  0 
  5  7  1  0  0  0  0 
  5  8  1  0  0  0  0 
  6  7  1  0  0  0  0 
  8  9  1  0  0  0  0 
  8 10  1  0  0  0  0 
  9 11  1  0  0  0  0 
 10 12  1  0  0  0  0 
 11 13  1  0  0  0  0 
 12 13  1  0  0  0  0 
M  END
> <PUBCHEM_COMPOUND_CID>
12891779

$$$$
