60811138
  CDK     1229141458

 34 35  0  0  0  0  0  0  0  0999 V2000
    4.0778    0.7076    0.0000 O   0  0  0  0  0  0  0  0  0  0  0  0
    3.2688   -3.8802    0.0000 N   0  0  0  0  0  0  0  0  0  0  0  0
    2.4598    0.7076    0.0000 N   0  0  0  0  0  0  0  0  0  0  0  0
    3.7688    1.6586    0.0000 N   0  0  0  0  0  0  0  0  0  0  0  0
    3.2688   -0.8802    0.0000 C   0  0  0  0  0  0  0  0  0  0  0  0
    3.2688   -2.8802    0.0000 C   0  0  0  0  0  0  0  0  0  0  0  0
    4.1349   -1.3802    0.0000 C   0  0  0  0  0  0  0  0  0  0  0  0
    2.4028   -1.3802    0.0000 C   0  0  0  0  0  0  0  0  0  0  0  0
    4.1349   -2.3802    0.0000 C   0  0  0  0  0  0  0  0  0  0  0  0
    2.4028   -2.3802    0.0000 C   0  0  0  0  0  0  0  0  0  0  0  0
    3.2688    0.1198    0.0000 C   0  0  0  0  0  0  0  0  0  0  0  0
    2.7688    1.6586    0.0000 C   0  0  0  0  0  0  0  0  0  0  0  0
    2.1810    2.4676    0.0000 C   0  0  0  0  0  0  0  0  0  0  0  0
    2.5878    3.3812    0.0000 C   0  0  0  0  0  0  0  0  0  0  0  0
    2.0000    4.1902    0.0000 C   0  0  0  0  0  0  0  0  0  0  0  0
    3.8058   -0.5702    0.0000 H   0  0  0  0  0  0  0  0  0  0  0  0
    3.8058   -3.1902    0.0000 H   0  0  0  0  0  0  0  0  0  0  0  0
    2.1908   -0.7976    0.0000 H   0  0  0  0  0  0  0  0  0  0  0  0
    1.7922   -1.4879    0.0000 H   0  0  0  0  0  0  0  0  0  0  0  0
    4.7454   -1.4879    0.0000 H   0  0  0  0  0  0  0  0  0  0  0  0
    4.3469   -0.7976    0.0000 H   0  0  0  0  0  0  0  0  0  0  0  0
    4.3469   -2.9628    0.0000 H   0  0  0  0  0  0  0  0  0  0  0  0
    1.7922   -2.2726    0.0000 H   0  0  0  0  0  0  0  0  0  0  0  0
    2.1908   -2.9628    0.0000 H   0  0  0  0  0  0  0  0  0  0  0  0
    4.7454   -2.2726    0.0000 H   0  0  0  0  0  0  0  0  0  0  0  0
    3.8058   -4.1902    0.0000 H   0  0  0  0  0  0  0  0  0  0  0  0
    2.7319   -4.1902    0.0000 H   0  0  0  0  0  0  0  0  0  0  0  0
    1.6670    2.8144    0.0000 H   0  0  0  0  0  0  0  0  0  0  0  0
    1.7504    2.0217    0.0000 H   0  0  0  0  0  0  0  0  0  0  0  0
    3.1018    3.0345    0.0000 H   0  0  0  0  0  0  0  0  0  0  0  0
    3.0185    3.8272    0.0000 H   0  0  0  0  0  0  0  0  0  0  0  0
    2.5016    4.5546    0.0000 H   0  0  0  0  0  0  0  0  0  0  0  0
    1.6356    4.6918    0.0000 H   0  0  0  0  0  0  0  0  0  0  0  0
    1.4984    3.8258    0.0000 H   0  0  0  0  0  0  0  0  0  0  0  0
  1  4  1  0  0  0  0 
  1 11  1  0  0  0  0 
  2  6  1  0  0  0  0 
  2 26  1  0  0  0  0 
  2 27  1  0  0  0  0 
  3 11  2  0  0  0  0 
  3 12  1  0  0  0  0 
  4 12  2  0  0  0  0 
  5  7  1  0  0  0  0 
  5  8  1  0  0  0  0 
  5 11  1  0  0  0  0 
  5 16  1  0  0  0  0 
  6  9  1  0  0  0  0 
  6 10  1  0  0  0  0 
  6 17  1  0  0  0  0 
  7  9  1  0  0  0  0 
  7 20  1  0  0  0  0 
  7 21  1  0  0  0  0 
  8 10  1  0  0  0  0 
  8 18  1  0  0  0  0 
  8 19  1  0  0  0  0 
  9 22  1  0  0  0  0 
  9 25  1  0  0  0  0 
 10 23  1  0  0  0  0 
 10 24  1  0  0  0  0 
 12 13  1  0  0  0  0 
 13 14  1  0  0  0  0 
 13 28  1  0  0  0  0 
 13 29  1  0  0  0  0 
 14 15  1  0  0  0  0 
 14 30  1  0  0  0  0 
 14 31  1  0  0  0  0 
 15 32  1  0  0  0  0 
 15 33  1  0  0  0  0 
 15 34  1  0  0  0  0 
M  END
> <cdk:Title>
60811138

> <cdk:Remark>
null

> <PUBCHEM_COMPOUND_CID>
60811138

> <PUBCHEM_COMPOUND_CANONICALIZED>
1

> <PUBCHEM_CACTVS_COMPLEXITY>
192

> <PUBCHEM_CACTVS_HBOND_ACCEPTOR>
4

> <PUBCHEM_CACTVS_HBOND_DONOR>
1

> <PUBCHEM_CACTVS_ROTATABLE_BOND>
3

> <PUBCHEM_CACTVS_SUBSKEYS>
AAADceBzIAAAAAAAAAAAAAAAAAAAAWAAAAAwAAAAAAAAAAABgAAAHgAUAAAADSjBgwQDEAZYEAApAAMwNgAAgAkAAKAhAIEwAACACBIAiAAEAAAEFQKAAAGY2SGeAAAAAAAAAAAQAAAAAAAAAAAAAAAAAA==

> <PUBCHEM_IUPAC_OPENEYE_NAME>
4-(3-propyl-1,2,4-oxadiazol-5-yl)cyclohexanamine

> <PUBCHEM_IUPAC_CAS_NAME>
4-(3-propyl-1,2,4-oxadiazol-5-yl)-1-cyclohexanamine

> <PUBCHEM_IUPAC_NAME>
4-(3-propyl-1,2,4-oxadiazol-5-yl)cyclohexan-1-amine

> <PUBCHEM_IUPAC_SYSTEMATIC_NAME>
4-(3-propyl-1,2,4-oxadiazol-5-yl)cyclohexan-1-amine

> <PUBCHEM_IUPAC_TRADITIONAL_NAME>
[4-(3-propyl-1,2,4-oxadiazol-5-yl)cyclohexyl]amine

> <PUBCHEM_IUPAC_INCHI>
InChI=1S/C11H19N3O/c1-2-3-10-13-11(15-14-10)8-4-6-9(12)7-5-8/h8-9H,2-7,12H2,1H3

> <PUBCHEM_IUPAC_INCHIKEY>
OFDCLORBTAATGY-UHFFFAOYSA-N

> <PUBCHEM_XLOGP3_AA>
1.7

> <PUBCHEM_EXACT_MASS>
209.152812

> <PUBCHEM_MOLECULAR_FORMULA>
C11H19N3O

> <PUBCHEM_MOLECULAR_WEIGHT>
209.28806

> <PUBCHEM_OPENEYE_CAN_SMILES>
CCCC1=NOC(=N1)C2CCC(CC2)N

> <PUBCHEM_OPENEYE_ISO_SMILES>
CCCC1=NOC(=N1)C2CCC(CC2)N

> <PUBCHEM_CACTVS_TPSA>
64.9

> <PUBCHEM_MONOISOTOPIC_WEIGHT>
209.152812

> <PUBCHEM_TOTAL_CHARGE>
0

> <PUBCHEM_HEAVY_ATOM_COUNT>
15

> <PUBCHEM_ATOM_DEF_STEREO_COUNT>
0

> <PUBCHEM_ATOM_UDEF_STEREO_COUNT>
0

> <PUBCHEM_BOND_DEF_STEREO_COUNT>
0

> <PUBCHEM_BOND_UDEF_STEREO_COUNT>
0

> <PUBCHEM_ISOTOPIC_ATOM_COUNT>
0

> <PUBCHEM_COMPONENT_COUNT>
1

> <PUBCHEM_CACTVS_TAUTO_COUNT>
1

> <PUBCHEM_COORDINATE_TYPE>
1

> <PUBCHEM_BONDANNOTATIONS>
1  11  8

$$$$
54002944
  CDK     1229141458

 35 36  0  0  0  0  0  0  0  0999 V2000
    2.0000    0.1682    0.0000 O   0  0  0  0  0  0  0  0  0  0  0  0
    3.7320    0.1682    0.0000 C   0  0  3  0  0  0  0  0  0  0  0  0
    3.7320    1.1682    0.0000 C   0  0  0  0  0  0  0  0  0  0  0  0
    4.5981    1.6682    0.0000 C   0  0  0  0  0  0  0  0  0  0  0  0
    4.7026    2.6627    0.0000 C   0  0  0  0  0  0  0  0  0  0  0  0
    5.6808    2.8706    0.0000 C   0  0  0  0  0  0  0  0  0  0  0  0
    6.1808    2.0046    0.0000 C   0  0  0  0  0  0  0  0  0  0  0  0
    2.8660   -1.3318    0.0000 C   0  0  0  0  0  0  0  0  0  0  0  0
    3.6750   -1.9196    0.0000 C   0  0  0  0  0  0  0  0  0  0  0  0
    2.8660   -0.3318    0.0000 C   0  0  0  0  0  0  0  0  0  0  0  0
    5.5116    1.2615    0.0000 C   0  0  0  0  0  0  0  0  0  0  0  0
    3.3660   -2.8706    0.0000 C   0  0  0  0  0  0  0  0  0  0  0  0
    2.3660   -2.8706    0.0000 C   0  0  0  0  0  0  0  0  0  0  0  0
    2.0570   -1.9196    0.0000 C   0  0  0  0  0  0  0  0  0  0  0  0
    4.5981   -0.3318    0.0000 C   0  0  0  0  0  0  0  0  0  0  0  0
    3.7320   -0.4518    0.0000 H   0  0  0  0  0  0  0  0  0  0  0  0
    3.5200    1.7508    0.0000 H   0  0  0  0  0  0  0  0  0  0  0  0
    3.1215    1.0605    0.0000 H   0  0  0  0  0  0  0  0  0  0  0  0
    4.6378    3.2793    0.0000 H   0  0  0  0  0  0  0  0  0  0  0  0
    4.0826    2.6627    0.0000 H   0  0  0  0  0  0  0  0  0  0  0  0
    6.2472    3.1228    0.0000 H   0  0  0  0  0  0  0  0  0  0  0  0
    5.4892    3.4603    0.0000 H   0  0  0  0  0  0  0  0  0  0  0  0
    6.5956    1.5439    0.0000 H   0  0  0  0  0  0  0  0  0  0  0  0
    6.6823    2.3690    0.0000 H   0  0  0  0  0  0  0  0  0  0  0  0
    4.2414   -2.1718    0.0000 H   0  0  0  0  0  0  0  0  0  0  0  0
    3.9850   -1.3826    0.0000 H   0  0  0  0  0  0  0  0  0  0  0  0
    5.6405    0.6550    0.0000 H   0  0  0  0  0  0  0  0  0  0  0  0
    3.3012   -3.4872    0.0000 H   0  0  0  0  0  0  0  0  0  0  0  0
    3.9725   -2.9995    0.0000 H   0  0  0  0  0  0  0  0  0  0  0  0
    1.7596   -2.9995    0.0000 H   0  0  0  0  0  0  0  0  0  0  0  0
    2.4308   -3.4872    0.0000 H   0  0  0  0  0  0  0  0  0  0  0  0
    1.4674   -1.7280    0.0000 H   0  0  0  0  0  0  0  0  0  0  0  0
    4.2881   -0.8687    0.0000 H   0  0  0  0  0  0  0  0  0  0  0  0
    5.1350   -0.6418    0.0000 H   0  0  0  0  0  0  0  0  0  0  0  0
    4.9081    0.2051    0.0000 H   0  0  0  0  0  0  0  0  0  0  0  0
  1 10  2  0  0  0  0 
  2  3  1  0  0  0  0 
  2 10  1  0  0  0  0 
  2 15  1  0  0  0  0 
  2 16  1  0  0  0  0 
  3  4  1  0  0  0  0 
  3 17  1  0  0  0  0 
  3 18  1  0  0  0  0 
  4  5  1  0  0  0  0 
  4 11  2  0  0  0  0 
  5  6  1  0  0  0  0 
  5 19  1  0  0  0  0 
  5 20  1  0  0  0  0 
  6  7  1  0  0  0  0 
  6 21  1  0  0  0  0 
  6 22  1  0  0  0  0 
  7 11  1  0  0  0  0 
  7 23  1  0  0  0  0 
  7 24  1  0  0  0  0 
  8  9  1  0  0  0  0 
  8 10  1  0  0  0  0 
  8 14  2  0  0  0  0 
  9 12  1  0  0  0  0 
  9 25  1  0  0  0  0 
  9 26  1  0  0  0  0 
 11 27  1  0  0  0  0 
 12 13  1  0  0  0  0 
 12 28  1  0  0  0  0 
 12 29  1  0  0  0  0 
 13 14  1  0  0  0  0 
 13 30  1  0  0  0  0 
 13 31  1  0  0  0  0 
 14 32  1  0  0  0  0 
 15 33  1  0  0  0  0 
 15 34  1  0  0  0  0 
 15 35  1  0  0  0  0 
M  END
> <cdk:Title>
54002944

> <cdk:Remark>
null

> <PUBCHEM_COMPOUND_CID>
54002944

> <PUBCHEM_COMPOUND_CANONICALIZED>
1

> <PUBCHEM_CACTVS_COMPLEXITY>
309

> <PUBCHEM_CACTVS_HBOND_ACCEPTOR>
1

> <PUBCHEM_CACTVS_HBOND_DONOR>
0

> <PUBCHEM_CACTVS_ROTATABLE_BOND>
4

> <PUBCHEM_CACTVS_SUBSKEYS>
AAADceBwIAAAAAAAAAAAAAAAAAAAAQIAAAAAAAAAAAAAAAAAAAAAGgAAAAAADQSAgAACAAAAAACIAqBSAAAAAAAgAAAACAEAAEgAABIAAQAAAAAAgAAIAYMIiMCOAAAAAAAAAAAAAAAAAAAAAAAAAAAAAA==

> <PUBCHEM_IUPAC_OPENEYE_NAME>
1,3-di(cyclopenten-1-yl)-2-methyl-propan-1-one

> <PUBCHEM_IUPAC_CAS_NAME>
1,3-bis(1-cyclopentenyl)-2-methyl-1-propanone

> <PUBCHEM_IUPAC_NAME>
1,3-di(cyclopenten-1-yl)-2-methylpropan-1-one

> <PUBCHEM_IUPAC_SYSTEMATIC_NAME>
1,3-di(cyclopenten-1-yl)-2-methyl-propan-1-one

> <PUBCHEM_IUPAC_TRADITIONAL_NAME>
1,3-di(cyclopenten-1-yl)-2-methyl-propan-1-one

> <PUBCHEM_IUPAC_INCHI>
InChI=1S/C14H20O/c1-11(10-12-6-2-3-7-12)14(15)13-8-4-5-9-13/h6,8,11H,2-5,7,9-10H2,1H3

> <PUBCHEM_IUPAC_INCHIKEY>
JTJULRWMVWSIOJ-UHFFFAOYSA-N

> <PUBCHEM_XLOGP3_AA>
3.3

> <PUBCHEM_EXACT_MASS>
204.151415

> <PUBCHEM_MOLECULAR_FORMULA>
C14H20O

> <PUBCHEM_MOLECULAR_WEIGHT>
204.308

> <PUBCHEM_OPENEYE_CAN_SMILES>
CC(CC1=CCCC1)C(=O)C2=CCCC2

> <PUBCHEM_OPENEYE_ISO_SMILES>
CC(CC1=CCCC1)C(=O)C2=CCCC2

> <PUBCHEM_CACTVS_TPSA>
17.1

> <PUBCHEM_MONOISOTOPIC_WEIGHT>
204.151415

> <PUBCHEM_TOTAL_CHARGE>
0

> <PUBCHEM_HEAVY_ATOM_COUNT>
15

> <PUBCHEM_ATOM_DEF_STEREO_COUNT>
0

> <PUBCHEM_ATOM_UDEF_STEREO_COUNT>
1

> <PUBCHEM_BOND_DEF_STEREO_COUNT>
0

> <PUBCHEM_BOND_UDEF_STEREO_COUNT>
0

> <PUBCHEM_ISOTOPIC_ATOM_COUNT>
0

> <PUBCHEM_COMPONENT_COUNT>
1

> <PUBCHEM_CACTVS_TAUTO_COUNT>
5

> <PUBCHEM_COORDINATE_TYPE>
1

> <PUBCHEM_BONDANNOTATIONS>
2  15  3

$$$$
