
  CDK     0202151410

 24 26  0  0  0  0  0  0  0  0999 V2000
   10.5897    1.9708    0.0000 O   0  0  0  0  0  0  0  0  0  0  0  0
    8.2386   -1.2653    0.0000 C   0  0  0  0  0  0  0  0  0  0  0  0
    9.0476   -1.8530    0.0000 C   0  0  0  0  0  0  0  0  0  0  0  0
    7.4296   -1.8530    0.0000 C   0  0  0  0  0  0  0  0  0  0  0  0
    7.7386   -2.8041    0.0000 C   0  0  0  0  0  0  0  0  0  0  0  0
    8.7386   -2.8041    0.0000 C   0  0  0  0  0  0  0  0  0  0  0  0
    8.8264   -0.4562    0.0000 C   0  0  0  0  0  0  0  0  0  0  0  0
    7.5192   -0.5706    0.0000 C   0  0  0  0  0  0  0  0  0  0  0  0
    6.4141   -1.6208    0.0000 C   0  0  0  0  0  0  0  0  0  0  0  0
   10.0630   -1.6208    0.0000 C   0  0  0  0  0  0  0  0  0  0  0  0
    9.4235   -3.5888    0.0000 C   0  0  0  0  0  0  0  0  0  0  0  0
    7.0536   -3.5888    0.0000 C   0  0  0  0  0  0  0  0  0  0  0  0
    8.4196    0.4573    0.0000 C   0  0  0  0  0  0  0  0  0  0  0  0
    9.8209   -0.5608    0.0000 C   0  0  0  0  0  0  0  0  0  0  0  0
    6.5580   -0.8462    0.0000 C   0  0  0  0  0  0  0  0  0  0  0  0
    7.7611    0.3997    0.0000 C   0  0  0  0  0  0  0  0  0  0  0  0
    5.7112   -2.3895    0.0000 C   0  0  0  0  0  0  0  0  0  0  0  0
   10.7659   -2.3895    0.0000 C   0  0  0  0  0  0  0  0  0  0  0  0
    9.0074    1.2663    0.0000 C   0  0  0  0  0  0  0  0  0  0  0  0
   10.4087    0.2482    0.0000 C   0  0  0  0  0  0  0  0  0  0  0  0
    5.8386   -0.1516    0.0000 C   0  0  0  0  0  0  0  0  0  0  0  0
    7.0418    1.0944    0.0000 C   0  0  0  0  0  0  0  0  0  0  0  0
   10.0019    1.1618    0.0000 C   0  0  0  0  0  0  0  0  0  0  0  0
    6.0805    0.8187    0.0000 C   0  0  0  0  0  0  0  0  0  0  0  0
  1 23  1  0  0  0  0 
  2  3  1  0  0  0  0 
  2  4  1  0  0  0  0 
  2  7  1  0  0  0  0 
  2  8  1  0  0  0  0 
  3  6  1  0  0  0  0 
  3 10  1  0  0  0  0 
  4  5  1  0  0  0  0 
  4  9  1  0  0  0  0 
  5  6  1  0  0  0  0 
  5 12  1  0  0  0  0 
  6 11  1  0  0  0  0 
  7 13  1  0  0  0  0 
  7 14  1  0  0  0  0 
  8 15  1  0  0  0  0 
  8 16  1  0  0  0  0 
  9 17  1  0  0  0  0 
 10 18  1  0  0  0  0 
 13 19  1  0  0  0  0 
 14 20  1  0  0  0  0 
 15 21  1  0  0  0  0 
 16 22  1  0  0  0  0 
 19 23  1  0  0  0  0 
 20 23  1  0  0  0  0 
 21 24  1  0  0  0  0 
 22 24  1  0  0  0  0 
M  END
> <PUBCHEM_COMPOUND_CID>
57528064

$$$$
