35314926
  CDK     0104151054

 49 49  0  0  0  0  0  0  0  0999 V2000
    4.5981    2.5000    0.0000 S   0  0  0  0  0  0  0  0  0  0  0  0
    5.5981    2.5000    0.0000 O   0  0  0  0  0  0  0  0  0  0  0  0
    3.5981    2.5000    0.0000 O   0  0  0  0  0  0  0  0  0  0  0  0
    4.5981    1.5000    0.0000 N   0  0  0  0  0  0  0  0  0  0  0  0
    4.5981    3.5000    0.0000 N   0  0  0  0  0  0  0  0  0  0  0  0
    3.7320    1.0000    0.0000 C   0  0  1  0  0  0  0  0  0  0  0  0
    2.8660    1.5000    0.0000 C   0  0  0  0  0  0  0  0  0  0  0  0
    3.7320   -3.0000    0.0000 C   0  0  0  0  0  0  0  0  0  0  0  0
    3.7320    0.0000    0.0000 C   0  0  0  0  0  0  0  0  0  0  0  0
    3.7320   -2.0000    0.0000 C   0  0  0  0  0  0  0  0  0  0  0  0
    2.8660    2.5000    0.0000 C   0  0  0  0  0  0  0  0  0  0  0  0
    2.0000    1.0000    0.0000 C   0  0  0  0  0  0  0  0  0  0  0  0
    4.5981   -0.5000    0.0000 C   0  0  0  0  0  0  0  0  0  0  0  0
    2.8660   -0.5000    0.0000 C   0  0  0  0  0  0  0  0  0  0  0  0
    4.5981   -1.5000    0.0000 C   0  0  0  0  0  0  0  0  0  0  0  0
    2.8660   -1.5000    0.0000 C   0  0  0  0  0  0  0  0  0  0  0  0
    3.7320   -4.0000    0.0000 C   0  0  0  0  0  0  0  0  0  0  0  0
    2.7320   -3.0000    0.0000 C   0  0  0  0  0  0  0  0  0  0  0  0
    4.7320   -3.0000    0.0000 C   0  0  0  0  0  0  0  0  0  0  0  0
    5.4641    4.0000    0.0000 C   0  0  0  0  0  0  0  0  0  0  0  0
    3.7320    4.0000    0.0000 C   0  0  0  0  0  0  0  0  0  0  0  0
    3.7320    1.6200    0.0000 H   0  0  0  0  0  0  0  0  0  0  0  0
    2.8660    0.8800    0.0000 H   0  0  0  0  0  0  0  0  0  0  0  0
    5.1350    1.1900    0.0000 H   0  0  0  0  0  0  0  0  0  0  0  0
    3.4860    2.5000    0.0000 H   0  0  0  0  0  0  0  0  0  0  0  0
    1.6900    1.5369    0.0000 H   0  0  0  0  0  0  0  0  0  0  0  0
    1.4631    0.6900    0.0000 H   0  0  0  0  0  0  0  0  0  0  0  0
    2.3100    0.4631    0.0000 H   0  0  0  0  0  0  0  0  0  0  0  0
    2.8660    3.1200    0.0000 H   0  0  0  0  0  0  0  0  0  0  0  0
    2.2460    2.5000    0.0000 H   0  0  0  0  0  0  0  0  0  0  0  0
    5.1350   -0.1900    0.0000 H   0  0  0  0  0  0  0  0  0  0  0  0
    2.3291   -0.1900    0.0000 H   0  0  0  0  0  0  0  0  0  0  0  0
    5.1350   -1.8100    0.0000 H   0  0  0  0  0  0  0  0  0  0  0  0
    2.3291   -1.8100    0.0000 H   0  0  0  0  0  0  0  0  0  0  0  0
    4.7320   -3.6200    0.0000 H   0  0  0  0  0  0  0  0  0  0  0  0
    5.3520   -3.0000    0.0000 H   0  0  0  0  0  0  0  0  0  0  0  0
    4.7320   -2.3800    0.0000 H   0  0  0  0  0  0  0  0  0  0  0  0
    2.7320   -2.3800    0.0000 H   0  0  0  0  0  0  0  0  0  0  0  0
    2.1120   -3.0000    0.0000 H   0  0  0  0  0  0  0  0  0  0  0  0
    2.7320   -3.6200    0.0000 H   0  0  0  0  0  0  0  0  0  0  0  0
    3.1120   -4.0000    0.0000 H   0  0  0  0  0  0  0  0  0  0  0  0
    3.7320   -4.6200    0.0000 H   0  0  0  0  0  0  0  0  0  0  0  0
    4.3520   -4.0000    0.0000 H   0  0  0  0  0  0  0  0  0  0  0  0
    4.0420    4.5369    0.0000 H   0  0  0  0  0  0  0  0  0  0  0  0
    3.1951    4.3100    0.0000 H   0  0  0  0  0  0  0  0  0  0  0  0
    3.4220    3.4631    0.0000 H   0  0  0  0  0  0  0  0  0  0  0  0
    5.7741    3.4631    0.0000 H   0  0  0  0  0  0  0  0  0  0  0  0
    6.0010    4.3100    0.0000 H   0  0  0  0  0  0  0  0  0  0  0  0
    5.1541    4.5369    0.0000 H   0  0  0  0  0  0  0  0  0  0  0  0
  1  2  2  0  0  0  0 
  1  3  2  0  0  0  0 
  1  4  1  0  0  0  0 
  1  5  1  0  0  0  0 
  6  4  1  6  0  0  0 
  4 24  1  0  0  0  0 
  5 20  1  0  0  0  0 
  5 21  1  0  0  0  0 
  6  7  1  0  0  0  0 
  6  9  1  0  0  0  0 
  6 22  1  0  0  0  0 
  7 11  1  0  0  0  0 
  7 12  1  0  0  0  0 
  7 23  1  0  0  0  0 
  8 10  1  0  0  0  0 
  8 17  1  0  0  0  0 
  8 18  1  0  0  0  0 
  8 19  1  0  0  0  0 
  9 13  2  0  0  0  0 
  9 14  1  0  0  0  0 
 10 15  2  0  0  0  0 
 10 16  1  0  0  0  0 
 11 25  1  0  0  0  0 
 11 29  1  0  0  0  0 
 11 30  1  0  0  0  0 
 12 26  1  0  0  0  0 
 12 27  1  0  0  0  0 
 12 28  1  0  0  0  0 
 13 15  1  0  0  0  0 
 13 31  1  0  0  0  0 
 14 16  2  0  0  0  0 
 14 32  1  0  0  0  0 
 15 33  1  0  0  0  0 
 16 34  1  0  0  0  0 
 17 41  1  0  0  0  0 
 17 42  1  0  0  0  0 
 17 43  1  0  0  0  0 
 18 38  1  0  0  0  0 
 18 39  1  0  0  0  0 
 18 40  1  0  0  0  0 
 19 35  1  0  0  0  0 
 19 36  1  0  0  0  0 
 19 37  1  0  0  0  0 
 20 47  1  0  0  0  0 
 20 48  1  0  0  0  0 
 20 49  1  0  0  0  0 
 21 44  1  0  0  0  0 
 21 45  1  0  0  0  0 
 21 46  1  0  0  0  0 
M  END
> <cdk:Title>
35314926

> <cdk:Remark>
null

> <PUBCHEM_COMPOUND_CID>
35314926

> <PUBCHEM_COMPOUND_CANONICALIZED>
1

> <PUBCHEM_CACTVS_COMPLEXITY>
411

> <PUBCHEM_CACTVS_HBOND_ACCEPTOR>
4

> <PUBCHEM_CACTVS_HBOND_DONOR>
1

> <PUBCHEM_CACTVS_ROTATABLE_BOND>
6

> <PUBCHEM_CACTVS_SUBSKEYS>
AAADceB7MABAAAAAAAAAAAAAAAAAAAAAAAAwAAAAAAAAAAABAAAAHAAQQAAADyjBGAQyAIJAAACAAiBCADCCAAAgAAAIiIAIBIgIICKAkRGAIABgkAAIiAcQgMAPwAAAAAAAAACAAAAAAAAAAAAAAAAAAA==

> <PUBCHEM_IUPAC_OPENEYE_NAME>
1-tert-butyl-4-[(1S)-1-(dimethylsulfamoylamino)-2-methyl-propyl]benzene

> <PUBCHEM_IUPAC_CAS_NAME>
1-tert-butyl-4-[(1S)-1-(dimethylsulfamoylamino)-2-methylpropyl]benzene

> <PUBCHEM_IUPAC_NAME>
1-tert-butyl-4-[(1S)-1-(dimethylsulfamoylamino)-2-methylpropyl]benzene

> <PUBCHEM_IUPAC_SYSTEMATIC_NAME>
1-tert-butyl-4-[(1S)-1-(dimethylsulfamoylamino)-2-methyl-propyl]benzene

> <PUBCHEM_IUPAC_TRADITIONAL_NAME>
1-tert-butyl-4-[(1S)-1-(dimethylsulfamoylamino)-2-methyl-propyl]benzene

> <PUBCHEM_IUPAC_INCHI>
InChI=1S/C16H28N2O2S/c1-12(2)15(17-21(19,20)18(6)7)13-8-10-14(11-9-13)16(3,4)5/h8-12,15,17H,1-7H3/t15-/m0/s1

> <PUBCHEM_IUPAC_INCHIKEY>
RHAOCIZDUXPFND-HNNXBMFYSA-N

> <PUBCHEM_XLOGP3_AA>
3.8

> <PUBCHEM_EXACT_MASS>
312.187149

> <PUBCHEM_MOLECULAR_FORMULA>
C16H28N2O2S

> <PUBCHEM_MOLECULAR_WEIGHT>
312.47072

> <PUBCHEM_OPENEYE_CAN_SMILES>
CC(C)C(C1=CC=C(C=C1)C(C)(C)C)NS(=O)(=O)N(C)C

> <PUBCHEM_OPENEYE_ISO_SMILES>
CC(C)[C@@H](C1=CC=C(C=C1)C(C)(C)C)NS(=O)(=O)N(C)C

> <PUBCHEM_CACTVS_TPSA>
57.8

> <PUBCHEM_MONOISOTOPIC_WEIGHT>
312.187149

> <PUBCHEM_TOTAL_CHARGE>
0

> <PUBCHEM_HEAVY_ATOM_COUNT>
21

> <PUBCHEM_ATOM_DEF_STEREO_COUNT>
1

> <PUBCHEM_ATOM_UDEF_STEREO_COUNT>
0

> <PUBCHEM_BOND_DEF_STEREO_COUNT>
0

> <PUBCHEM_BOND_UDEF_STEREO_COUNT>
0

> <PUBCHEM_ISOTOPIC_ATOM_COUNT>
0

> <PUBCHEM_COMPONENT_COUNT>
1

> <PUBCHEM_CACTVS_TAUTO_COUNT>
1

> <PUBCHEM_COORDINATE_TYPE>
1

> <PUBCHEM_BONDANNOTATIONS>
10  15  8

$$$$
