
  CDK     0224152114

 25 28  0  0  0  0  0  0  0  0999 V2000
    5.4155    2.5470    0.0000 N   0  0  0  0  0  0  0  0  0  0  0  0
    2.7431    2.6992    0.0000 N   0  0  0  0  0  0  0  0  0  0  0  0
    8.3991    2.8606    0.0000 N   0  0  0  0  0  0  0  0  0  0  0  0
    4.4374    2.3391    0.0000 C   0  0  1  0  0  0  0  0  0  0  0  0
    4.3328    1.3445    0.0000 C   0  0  0  0  0  0  0  0  0  0  0  0
    5.8222    3.4605    0.0000 C   0  0  0  0  0  0  0  0  0  0  0  0
    5.9155    1.6809    0.0000 C   0  0  0  0  0  0  0  0  0  0  0  0
    3.6942    3.0082    0.0000 C   0  0  0  0  0  0  0  0  0  0  0  0
    5.2464    0.9378    0.0000 C   0  0  0  0  0  0  0  0  0  0  0  0
    3.4668    0.8445    0.0000 C   0  0  0  0  0  0  0  0  0  0  0  0
    6.8168    3.5650    0.0000 C   0  0  0  0  0  0  0  0  0  0  0  0
    3.9021    3.9863    0.0000 C   0  0  0  0  0  0  0  0  0  0  0  0
    3.4668   -0.1555    0.0000 C   0  0  0  0  0  0  0  0  0  0  0  0
    7.2235    4.4786    0.0000 C   0  0  0  0  0  0  0  0  0  0  0  0
    7.4045    2.7560    0.0000 C   0  0  0  0  0  0  0  0  0  0  0  0
    3.1590    4.6555    0.0000 C   0  0  0  0  0  0  0  0  0  0  0  0
    2.6008   -0.6555    0.0000 C   0  0  0  0  0  0  0  0  0  0  0  0
    4.3328   -0.6555    0.0000 C   0  0  0  0  0  0  0  0  0  0  0  0
    2.0000    3.3683    0.0000 C   0  0  0  0  0  0  0  0  0  0  0  0
    2.2079    4.3464    0.0000 C   0  0  0  0  0  0  0  0  0  0  0  0
    2.6008   -1.6555    0.0000 C   0  0  0  0  0  0  0  0  0  0  0  0
    4.3328   -1.6555    0.0000 C   0  0  0  0  0  0  0  0  0  0  0  0
    8.2180    4.5831    0.0000 C   0  0  0  0  0  0  0  0  0  0  0  0
    3.4668   -2.1555    0.0000 C   0  0  0  0  0  0  0  0  0  0  0  0
    8.8058    3.7741    0.0000 C   0  0  0  0  0  0  0  0  0  0  0  0
  1  4  1  0  0  0  0 
  1  6  1  0  0  0  0 
  1  7  1  0  0  0  0 
  2  8  1  0  0  0  0 
  2 19  1  0  0  0  0 
  3 15  1  0  0  0  0 
  3 25  1  0  0  0  0 
  4  5  1  0  0  0  0 
  4  8  1  0  0  0  0 
  5  9  1  0  0  0  0 
  5 10  1  3  0  0  0 
  6 11  1  0  0  0  0 
  7  9  1  0  0  0  0 
  8 12  1  0  0  0  0 
 10 13  1  0  0  0  0 
 11 14  1  0  0  0  0 
 11 15  1  0  0  0  0 
 12 16  1  0  0  0  0 
 13 17  1  0  0  0  0 
 13 18  1  0  0  0  0 
 14 23  1  0  0  0  0 
 16 20  1  0  0  0  0 
 17 21  1  0  0  0  0 
 18 22  1  0  0  0  0 
 19 20  1  0  0  0  0 
 21 24  1  0  0  0  0 
 22 24  1  0  0  0  0 
 23 25  1  0  0  0  0 
M  END
> <PUBCHEM_COMPOUND_CID>
1525165

$$$$
