17566360
  CDK     0104151047

 63 67  0  0  0  0  0  0  0  0999 V2000
    5.7172   -1.5795    0.0000 S   0  0  0  0  0  0  0  0  0  0  0  0
    6.8386   -2.1946    0.0000 O   0  0  0  0  0  0  0  0  0  0  0  0
    4.3511    2.4594    0.0000 N   0  0  0  0  0  0  0  0  0  0  0  0
    6.7998   -4.7819    0.0000 N   0  0  3  0  0  0  0  0  0  0  0  0
    7.2998   -3.9159    0.0000 N   0  0  0  0  0  0  0  0  0  0  0  0
    4.8511   -3.0795    0.0000 N   0  0  0  0  0  0  0  0  0  0  0  0
    3.9851   -0.5795    0.0000 N   0  0  0  0  0  0  0  0  0  0  0  0
    3.9851   -1.5795    0.0000 N   0  0  0  0  0  0  0  0  0  0  0  0
    4.0421    1.5083    0.0000 C   0  0  0  0  0  0  0  0  0  0  0  0
    4.8511    0.9205    0.0000 C   0  0  0  0  0  0  0  0  0  0  0  0
    5.3511    2.4594    0.0000 C   0  0  0  0  0  0  0  0  0  0  0  0
    5.6602    1.5083    0.0000 C   0  0  0  0  0  0  0  0  0  0  0  0
    5.8217   -4.5740    0.0000 C   0  0  0  0  0  0  0  0  0  0  0  0
    5.7172   -3.5795    0.0000 C   0  0  0  0  0  0  0  0  0  0  0  0
    3.7634    3.2684    0.0000 C   0  0  0  0  0  0  0  0  0  0  0  0
    4.8511   -0.0795    0.0000 C   0  0  0  0  0  0  0  0  0  0  0  0
    6.6307   -3.1727    0.0000 C   0  0  0  0  0  0  0  0  0  0  0  0
    3.0911    1.1993    0.0000 C   0  0  0  0  0  0  0  0  0  0  0  0
    5.7172   -0.5795    0.0000 C   0  0  0  0  0  0  0  0  0  0  0  0
    5.9389    3.2684    0.0000 C   0  0  0  0  0  0  0  0  0  0  0  0
    8.2944   -3.8114    0.0000 C   0  0  0  0  0  0  0  0  0  0  0  0
    7.2066   -5.6954    0.0000 C   0  0  0  0  0  0  0  0  0  0  0  0
    5.0786   -5.2431    0.0000 C   0  0  0  0  0  0  0  0  0  0  0  0
    4.1701    4.1819    0.0000 C   0  0  0  0  0  0  0  0  0  0  0  0
    2.7688    3.1639    0.0000 C   0  0  0  0  0  0  0  0  0  0  0  0
    4.8511   -2.0795    0.0000 C   0  0  0  0  0  0  0  0  0  0  0  0
    2.5878    4.8864    0.0000 C   0  0  0  0  0  0  0  0  0  0  0  0
    3.5823    4.9910    0.0000 C   0  0  0  0  0  0  0  0  0  0  0  0
    2.1810    3.9729    0.0000 C   0  0  0  0  0  0  0  0  0  0  0  0
    8.8822   -4.6204    0.0000 C   0  0  0  0  0  0  0  0  0  0  0  0
    8.7011   -2.8978    0.0000 C   0  0  0  0  0  0  0  0  0  0  0  0
    9.8767   -4.5158    0.0000 C   0  0  0  0  0  0  0  0  0  0  0  0
    9.6956   -2.7933    0.0000 C   0  0  0  0  0  0  0  0  0  0  0  0
    2.0000    5.6954    0.0000 C   0  0  0  0  0  0  0  0  0  0  0  0
   10.2834   -3.6023    0.0000 C   0  0  0  0  0  0  0  0  0  0  0  0
    6.2498    1.3167    0.0000 H   0  0  0  0  0  0  0  0  0  0  0  0
    2.8995    1.7890    0.0000 H   0  0  0  0  0  0  0  0  0  0  0  0
    2.5014    1.0077    0.0000 H   0  0  0  0  0  0  0  0  0  0  0  0
    3.2827    0.6096    0.0000 H   0  0  0  0  0  0  0  0  0  0  0  0
    6.3278   -0.6871    0.0000 H   0  0  0  0  0  0  0  0  0  0  0  0
    5.9292    0.0031    0.0000 H   0  0  0  0  0  0  0  0  0  0  0  0
    6.4405    2.9040    0.0000 H   0  0  0  0  0  0  0  0  0  0  0  0
    6.3034    3.7700    0.0000 H   0  0  0  0  0  0  0  0  0  0  0  0
    5.4373    3.6328    0.0000 H   0  0  0  0  0  0  0  0  0  0  0  0
    4.3142   -3.3895    0.0000 H   0  0  0  0  0  0  0  0  0  0  0  0
    6.6402   -5.9476    0.0000 H   0  0  0  0  0  0  0  0  0  0  0  0
    7.4588   -6.2618    0.0000 H   0  0  0  0  0  0  0  0  0  0  0  0
    7.7730   -5.4433    0.0000 H   0  0  0  0  0  0  0  0  0  0  0  0
    4.6637   -4.7824    0.0000 H   0  0  0  0  0  0  0  0  0  0  0  0
    4.6178   -5.6580    0.0000 H   0  0  0  0  0  0  0  0  0  0  0  0
    5.4934   -5.7039    0.0000 H   0  0  0  0  0  0  0  0  0  0  0  0
    4.7867    4.2467    0.0000 H   0  0  0  0  0  0  0  0  0  0  0  0
    2.5167    2.5975    0.0000 H   0  0  0  0  0  0  0  0  0  0  0  0
    3.8345    5.5573    0.0000 H   0  0  0  0  0  0  0  0  0  0  0  0
    1.5644    3.9081    0.0000 H   0  0  0  0  0  0  0  0  0  0  0  0
    8.6300   -5.1868    0.0000 H   0  0  0  0  0  0  0  0  0  0  0  0
    8.3367   -2.3962    0.0000 H   0  0  0  0  0  0  0  0  0  0  0  0
   10.2411   -5.0174    0.0000 H   0  0  0  0  0  0  0  0  0  0  0  0
    9.9478   -2.2269    0.0000 H   0  0  0  0  0  0  0  0  0  0  0  0
    2.5016    6.0599    0.0000 H   0  0  0  0  0  0  0  0  0  0  0  0
    1.6356    6.1970    0.0000 H   0  0  0  0  0  0  0  0  0  0  0  0
    1.4984    5.3310    0.0000 H   0  0  0  0  0  0  0  0  0  0  0  0
   10.9000   -3.5375    0.0000 H   0  0  0  0  0  0  0  0  0  0  0  0
  1 19  1  0  0  0  0 
  1 26  1  0  0  0  0 
  2 17  2  0  0  0  0 
  3  9  1  0  0  0  0 
  3 11  1  0  0  0  0 
  3 15  1  0  0  0  0 
  4  5  1  0  0  0  0 
  4 13  1  0  0  0  0 
  4 22  1  0  0  0  0 
  5 17  1  0  0  0  0 
  5 21  1  0  0  0  0 
  6 14  1  0  0  0  0 
  6 26  1  0  0  0  0 
  6 45  1  0  0  0  0 
  7  8  1  0  0  0  0 
  7 16  2  0  0  0  0 
  8 26  2  0  0  0  0 
  9 10  2  0  0  0  0 
  9 18  1  0  0  0  0 
 10 12  1  0  0  0  0 
 10 16  1  0  0  0  0 
 11 12  2  0  0  0  0 
 11 20  1  0  0  0  0 
 12 36  1  0  0  0  0 
 13 14  2  0  0  0  0 
 13 23  1  0  0  0  0 
 14 17  1  0  0  0  0 
 15 24  2  0  0  0  0 
 15 25  1  0  0  0  0 
 16 19  1  0  0  0  0 
 18 37  1  0  0  0  0 
 18 38  1  0  0  0  0 
 18 39  1  0  0  0  0 
 19 40  1  0  0  0  0 
 19 41  1  0  0  0  0 
 20 42  1  0  0  0  0 
 20 43  1  0  0  0  0 
 20 44  1  0  0  0  0 
 21 30  2  0  0  0  0 
 21 31  1  0  0  0  0 
 22 46  1  0  0  0  0 
 22 47  1  0  0  0  0 
 22 48  1  0  0  0  0 
 23 49  1  0  0  0  0 
 23 50  1  0  0  0  0 
 23 51  1  0  0  0  0 
 24 28  1  0  0  0  0 
 24 52  1  0  0  0  0 
 25 29  2  0  0  0  0 
 25 53  1  0  0  0  0 
 27 28  2  0  0  0  0 
 27 29  1  0  0  0  0 
 27 34  1  0  0  0  0 
 28 54  1  0  0  0  0 
 29 55  1  0  0  0  0 
 30 32  1  0  0  0  0 
 30 56  1  0  0  0  0 
 31 33  2  0  0  0  0 
 31 57  1  0  0  0  0 
 32 35  2  0  0  0  0 
 32 58  1  0  0  0  0 
 33 35  1  0  0  0  0 
 33 59  1  0  0  0  0 
 34 60  1  0  0  0  0 
 34 61  1  0  0  0  0 
 34 62  1  0  0  0  0 
 35 63  1  0  0  0  0 
M  END
> <cdk:Title>
17566360

> <cdk:Remark>
null

> <PUBCHEM_COMPOUND_CID>
17566360

> <PUBCHEM_COMPOUND_CANONICALIZED>
1

> <PUBCHEM_CACTVS_COMPLEXITY>
901

> <PUBCHEM_CACTVS_HBOND_ACCEPTOR>
5

> <PUBCHEM_CACTVS_HBOND_DONOR>
1

> <PUBCHEM_CACTVS_ROTATABLE_BOND>
5

> <PUBCHEM_CACTVS_SUBSKEYS>
AAADceB7oABAAAAAAAAAAAAAAAAAAWIAAAAwYIAAAAAAAAAB0AAAHgQYAAAADAiF3gSzwJPMEAioAyVydACChCBhAjAbmCC4ZNgIYOLgmbGUIAhghADIyUcQgAAOCAAAAAAAAAAQAAAAAAAAAAAAAAAAAA==

> <PUBCHEM_IUPAC_OPENEYE_NAME>
4-[[5-[2,5-dimethyl-1-(p-tolyl)pyrrol-3-yl]-6H-1,3,4-thiadiazin-2-yl]amino]-1,5-dimethyl-2-phenyl-pyrazol-3-one

> <PUBCHEM_IUPAC_CAS_NAME>
4-[[5-[2,5-dimethyl-1-(4-methylphenyl)-3-pyrrolyl]-6H-1,3,4-thiadiazin-2-yl]amino]-1,5-dimethyl-2-phenyl-3-pyrazolone

> <PUBCHEM_IUPAC_NAME>
4-[[5-[2,5-dimethyl-1-(4-methylphenyl)pyrrol-3-yl]-6H-1,3,4-thiadiazin-2-yl]amino]-1,5-dimethyl-2-phenylpyrazol-3-one

> <PUBCHEM_IUPAC_SYSTEMATIC_NAME>
4-[[5-[2,5-dimethyl-1-(4-methylphenyl)pyrrol-3-yl]-6H-1,3,4-thiadiazin-2-yl]amino]-1,5-dimethyl-2-phenyl-pyrazol-3-one

> <PUBCHEM_IUPAC_TRADITIONAL_NAME>
4-[[5-[2,5-dimethyl-1-(p-tolyl)pyrrol-3-yl]-6H-1,3,4-thiadiazin-2-yl]amino]-1,5-dimethyl-2-phenyl-3-pyrazolin-3-one

> <PUBCHEM_IUPAC_INCHI>
InChI=1S/C27H28N6OS/c1-17-11-13-21(14-12-17)32-18(2)15-23(19(32)3)24-16-35-27(30-29-24)28-25-20(4)31(5)33(26(25)34)22-9-7-6-8-10-22/h6-15H,16H2,1-5H3,(H,28,30)

> <PUBCHEM_IUPAC_INCHIKEY>
UYGCLWLYZZZFGK-UHFFFAOYSA-N

> <PUBCHEM_XLOGP3_AA>
5.5

> <PUBCHEM_EXACT_MASS>
484.204531

> <PUBCHEM_MOLECULAR_FORMULA>
C27H28N6OS

> <PUBCHEM_MOLECULAR_WEIGHT>
484.61582

> <PUBCHEM_OPENEYE_CAN_SMILES>
CC1=CC=C(C=C1)N2C(=CC(=C2C)C3=NN=C(SC3)NC4=C(N(N(C4=O)C5=CC=CC=C5)C)C)C

> <PUBCHEM_OPENEYE_ISO_SMILES>
CC1=CC=C(C=C1)N2C(=CC(=C2C)C3=NN=C(SC3)NC4=C(N(N(C4=O)C5=CC=CC=C5)C)C)C

> <PUBCHEM_CACTVS_TPSA>
90.5

> <PUBCHEM_MONOISOTOPIC_WEIGHT>
484.204531

> <PUBCHEM_TOTAL_CHARGE>
0

> <PUBCHEM_HEAVY_ATOM_COUNT>
35

> <PUBCHEM_ATOM_DEF_STEREO_COUNT>
0

> <PUBCHEM_ATOM_UDEF_STEREO_COUNT>
0

> <PUBCHEM_BOND_DEF_STEREO_COUNT>
0

> <PUBCHEM_BOND_UDEF_STEREO_COUNT>
0

> <PUBCHEM_ISOTOPIC_ATOM_COUNT>
0

> <PUBCHEM_COMPONENT_COUNT>
1

> <PUBCHEM_CACTVS_TAUTO_COUNT>
2

> <PUBCHEM_COORDINATE_TYPE>
1

> <PUBCHEM_BONDANNOTATIONS>
10  12  8

$$$$
