35658984
  CDK     1228141037

 55 58  0  0  0  0  0  0  0  0999 V2000
    4.5981    0.8067    0.0000 S   0  0  0  0  0  0  0  0  0  0  0  0
    5.3768    5.1056    0.0000 S   0  0  0  0  0  0  0  0  0  0  0  0
    5.8969    0.3641    0.0000 O   0  0  0  0  0  0  0  0  0  0  0  0
    4.5981   -1.1934    0.0000 O   0  0  0  0  0  0  0  0  0  0  0  0
    3.7321   -5.6934    0.0000 O   0  0  0  0  0  0  0  0  0  0  0  0
    5.4071    2.3944    0.0000 N   0  0  0  0  0  0  0  0  0  0  0  0
    4.0981    3.3455    0.0000 N   0  0  0  0  0  0  0  0  0  0  0  0
    3.7891    2.3944    0.0000 N   0  0  0  0  0  0  0  0  0  0  0  0
    2.8660   -1.1934    0.0000 N   0  0  0  0  0  0  0  0  0  0  0  0
    6.5661    1.1073    0.0000 C   0  0  1  0  0  0  0  0  0  0  0  0
    7.4796    0.7005    0.0000 C   0  0  0  0  0  0  0  0  0  0  0  0
    7.3751   -0.2940    0.0000 C   0  0  0  0  0  0  0  0  0  0  0  0
    6.3582    2.0854    0.0000 C   0  0  0  0  0  0  0  0  0  0  0  0
    6.3969   -0.5019    0.0000 C   0  0  0  0  0  0  0  0  0  0  0  0
    5.0981    3.3455    0.0000 C   0  0  0  0  0  0  0  0  0  0  0  0
    4.5981    1.8067    0.0000 C   0  0  0  0  0  0  0  0  0  0  0  0
    5.6859    4.1545    0.0000 C   0  0  0  0  0  0  0  0  0  0  0  0
    3.7321    0.3067    0.0000 C   0  0  2  0  0  0  0  0  0  0  0  0
    6.6859    4.1545    0.0000 C   0  0  0  0  0  0  0  0  0  0  0  0
    2.8660    0.8067    0.0000 C   0  0  0  0  0  0  0  0  0  0  0  0
    3.7321   -0.6934    0.0000 C   0  0  0  0  0  0  0  0  0  0  0  0
    6.9949    5.1056    0.0000 C   0  0  0  0  0  0  0  0  0  0  0  0
    6.1859    5.6934    0.0000 C   0  0  0  0  0  0  0  0  0  0  0  0
    2.8660   -2.1934    0.0000 C   0  0  0  0  0  0  0  0  0  0  0  0
    2.0000   -2.6934    0.0000 C   0  0  0  0  0  0  0  0  0  0  0  0
    3.7321   -2.6934    0.0000 C   0  0  0  0  0  0  0  0  0  0  0  0
    2.8660   -4.1934    0.0000 C   0  0  0  0  0  0  0  0  0  0  0  0
    2.0000   -3.6934    0.0000 C   0  0  0  0  0  0  0  0  0  0  0  0
    3.7321   -3.6934    0.0000 C   0  0  0  0  0  0  0  0  0  0  0  0
    2.8660   -5.1934    0.0000 C   0  0  0  0  0  0  0  0  0  0  0  0
    2.0000   -5.6934    0.0000 C   0  0  0  0  0  0  0  0  0  0  0  0
    5.9672    1.2677    0.0000 H   0  0  0  0  0  0  0  0  0  0  0  0
    8.0861    0.5716    0.0000 H   0  0  0  0  0  0  0  0  0  0  0  0
    7.6712    1.2902    0.0000 H   0  0  0  0  0  0  0  0  0  0  0  0
    7.4399   -0.9106    0.0000 H   0  0  0  0  0  0  0  0  0  0  0  0
    7.9951   -0.2940    0.0000 H   0  0  0  0  0  0  0  0  0  0  0  0
    6.9778    2.1071    0.0000 H   0  0  0  0  0  0  0  0  0  0  0  0
    6.4444    2.6994    0.0000 H   0  0  0  0  0  0  0  0  0  0  0  0
    5.8305   -0.7541    0.0000 H   0  0  0  0  0  0  0  0  0  0  0  0
    6.5885   -1.0916    0.0000 H   0  0  0  0  0  0  0  0  0  0  0  0
    3.7321    0.9267    0.0000 H   0  0  0  0  0  0  0  0  0  0  0  0
    7.0503    3.6529    0.0000 H   0  0  0  0  0  0  0  0  0  0  0  0
    3.1760    1.3436    0.0000 H   0  0  0  0  0  0  0  0  0  0  0  0
    2.3291    1.1167    0.0000 H   0  0  0  0  0  0  0  0  0  0  0  0
    2.5560    0.2697    0.0000 H   0  0  0  0  0  0  0  0  0  0  0  0
    7.5845    5.2972    0.0000 H   0  0  0  0  0  0  0  0  0  0  0  0
    6.1859    6.3134    0.0000 H   0  0  0  0  0  0  0  0  0  0  0  0
    2.3291   -0.8834    0.0000 H   0  0  0  0  0  0  0  0  0  0  0  0
    1.4631   -2.3834    0.0000 H   0  0  0  0  0  0  0  0  0  0  0  0
    4.2690   -2.3834    0.0000 H   0  0  0  0  0  0  0  0  0  0  0  0
    1.4631   -4.0034    0.0000 H   0  0  0  0  0  0  0  0  0  0  0  0
    4.2690   -4.0034    0.0000 H   0  0  0  0  0  0  0  0  0  0  0  0
    1.6900   -5.1564    0.0000 H   0  0  0  0  0  0  0  0  0  0  0  0
    1.4631   -6.0034    0.0000 H   0  0  0  0  0  0  0  0  0  0  0  0
    2.3100   -6.2303    0.0000 H   0  0  0  0  0  0  0  0  0  0  0  0
  1 16  1  0  0  0  0 
  1 18  1  0  0  0  0 
  2 17  1  0  0  0  0 
  2 23  1  0  0  0  0 
  3 10  1  0  0  0  0 
  3 14  1  0  0  0  0 
  4 21  2  0  0  0  0 
  5 30  2  0  0  0  0 
  6 13  1  0  0  0  0 
  6 15  1  0  0  0  0 
  6 16  1  0  0  0  0 
  7  8  1  0  0  0  0 
  7 15  2  0  0  0  0 
  8 16  2  0  0  0  0 
  9 21  1  0  0  0  0 
  9 24  1  0  0  0  0 
  9 48  1  0  0  0  0 
 10 11  1  0  0  0  0 
 10 13  1  6  0  0  0 
 10 32  1  0  0  0  0 
 11 12  1  0  0  0  0 
 11 33  1  0  0  0  0 
 11 34  1  0  0  0  0 
 12 14  1  0  0  0  0 
 12 35  1  0  0  0  0 
 12 36  1  0  0  0  0 
 13 37  1  0  0  0  0 
 13 38  1  0  0  0  0 
 14 39  1  0  0  0  0 
 14 40  1  0  0  0  0 
 15 17  1  0  0  0  0 
 17 19  2  0  0  0  0 
 18 20  1  1  0  0  0 
 18 21  1  0  0  0  0 
 18 41  1  0  0  0  0 
 19 22  1  0  0  0  0 
 19 42  1  0  0  0  0 
 20 43  1  0  0  0  0 
 20 44  1  0  0  0  0 
 20 45  1  0  0  0  0 
 22 23  2  0  0  0  0 
 22 46  1  0  0  0  0 
 23 47  1  0  0  0  0 
 24 25  2  0  0  0  0 
 24 26  1  0  0  0  0 
 25 28  1  0  0  0  0 
 25 49  1  0  0  0  0 
 26 29  2  0  0  0  0 
 26 50  1  0  0  0  0 
 27 28  2  0  0  0  0 
 27 29  1  0  0  0  0 
 27 30  1  0  0  0  0 
 28 51  1  0  0  0  0 
 29 52  1  0  0  0  0 
 30 31  1  0  0  0  0 
 31 53  1  0  0  0  0 
 31 54  1  0  0  0  0 
 31 55  1  0  0  0  0 
M  END
> <cdk:Title>
35658984

> <cdk:Remark>
null

> <PUBCHEM_COMPOUND_CID>
35658984

> <PUBCHEM_COMPOUND_CANONICALIZED>
1

> <PUBCHEM_CACTVS_COMPLEXITY>
632

> <PUBCHEM_CACTVS_HBOND_ACCEPTOR>
7

> <PUBCHEM_CACTVS_HBOND_DONOR>
1

> <PUBCHEM_CACTVS_ROTATABLE_BOND>
8

> <PUBCHEM_CACTVS_SUBSKEYS>
AAADceB7sABgAAAAAAAAAAAAAAAAAWJEgAAwAAAAAAAAAAAB8AAAHgQYAAAADBzl2waz0YfMFAiuAqdydACT0ItlCrBdyDkoZNiKKLLgnZGHIQhknAL4yYeYmYKeCAAAAAAAAAAQAAAAAAAAAAAAAAAAAA==

> <PUBCHEM_IUPAC_OPENEYE_NAME>
(2R)-N-(4-acetylphenyl)-2-[[4-[[(2S)-tetrahydrofuran-2-yl]methyl]-5-(2-thienyl)-1,2,4-triazol-3-yl]sulfanyl]propanamide

> <PUBCHEM_IUPAC_CAS_NAME>
(2R)-N-(4-acetylphenyl)-2-[[4-[[(2S)-2-oxolanyl]methyl]-5-thiophen-2-yl-1,2,4-triazol-3-yl]thio]propanamide

> <PUBCHEM_IUPAC_NAME>
(2R)-N-(4-acetylphenyl)-2-[[4-[[(2S)-oxolan-2-yl]methyl]-5-thiophen-2-yl-1,2,4-triazol-3-yl]sulfanyl]propanamide

> <PUBCHEM_IUPAC_SYSTEMATIC_NAME>
(2R)-N-(4-ethanoylphenyl)-2-[[4-[[(2S)-oxolan-2-yl]methyl]-5-thiophen-2-yl-1,2,4-triazol-3-yl]sulfanyl]propanamide

> <PUBCHEM_IUPAC_TRADITIONAL_NAME>
(2R)-N-(4-acetylphenyl)-2-[[4-[[(2S)-tetrahydrofuran-2-yl]methyl]-5-(2-thienyl)-1,2,4-triazol-3-yl]thio]propionamide

> <PUBCHEM_IUPAC_INCHI>
InChI=1S/C22H24N4O3S2/c1-14(27)16-7-9-17(10-8-16)23-21(28)15(2)31-22-25-24-20(19-6-4-12-30-19)26(22)13-18-5-3-11-29-18/h4,6-10,12,15,18H,3,5,11,13H2,1-2H3,(H,23,28)/t15-,18+/m1/s1

> <PUBCHEM_IUPAC_INCHIKEY>
MGWPBIJQFVQJJY-QAPCUYQASA-N

> <PUBCHEM_XLOGP3_AA>
3

> <PUBCHEM_EXACT_MASS>
456.128983

> <PUBCHEM_MOLECULAR_FORMULA>
C22H24N4O3S2

> <PUBCHEM_MOLECULAR_WEIGHT>
456.58096

> <PUBCHEM_OPENEYE_CAN_SMILES>
CC(C(=O)NC1=CC=C(C=C1)C(=O)C)SC2=NN=C(N2CC3CCCO3)C4=CC=CS4

> <PUBCHEM_OPENEYE_ISO_SMILES>
C[C@H](C(=O)NC1=CC=C(C=C1)C(=O)C)SC2=NN=C(N2C[C@@H]3CCCO3)C4=CC=CS4

> <PUBCHEM_CACTVS_TPSA>
140

> <PUBCHEM_MONOISOTOPIC_WEIGHT>
456.128983

> <PUBCHEM_TOTAL_CHARGE>
0

> <PUBCHEM_HEAVY_ATOM_COUNT>
31

> <PUBCHEM_ATOM_DEF_STEREO_COUNT>
2

> <PUBCHEM_ATOM_UDEF_STEREO_COUNT>
0

> <PUBCHEM_BOND_DEF_STEREO_COUNT>
0

> <PUBCHEM_BOND_UDEF_STEREO_COUNT>
0

> <PUBCHEM_ISOTOPIC_ATOM_COUNT>
0

> <PUBCHEM_COMPONENT_COUNT>
1

> <PUBCHEM_CACTVS_TAUTO_COUNT>
9

> <PUBCHEM_COORDINATE_TYPE>
1

> <PUBCHEM_BONDANNOTATIONS>
10  13  6

$$$$
