50108870
  CDK     1227140956

102107  0  0  0  0  0  0  0  0999 V2000
   17.8017   -1.7715    0.0000 F   0  0  0  0  0  0  0  0  0  0  0  0
    4.8532    6.4114    0.0000 F   0  0  0  0  0  0  0  0  0  0  0  0
   13.2357    0.0291    0.0000 O   0  0  0  0  0  0  0  0  0  0  0  0
   14.3376   -0.7715    0.0000 O   0  0  0  0  0  0  0  0  0  0  0  0
    9.3120    2.3966    0.0000 O   0  0  0  0  0  0  0  0  0  0  0  0
   15.2037   -5.2715    0.0000 O   0  0  0  0  0  0  0  0  0  0  0  0
    5.5963    5.7423    0.0000 O   0  0  0  0  0  0  0  0  0  0  0  0
   14.3946    1.3163    0.0000 N   0  0  0  0  0  0  0  0  0  0  0  0
   11.2142    3.0146    0.0000 N   0  0  0  0  0  0  0  0  0  0  0  0
   16.0697   -0.7715    0.0000 N   0  0  0  0  0  0  0  0  0  0  0  0
    8.7768    4.0439    0.0000 N   0  0  0  0  0  0  0  0  0  0  0  0
   14.3376   -3.7715    0.0000 N   0  0  0  0  0  0  0  0  0  0  0  0
    4.4374    4.4551    0.0000 N   0  0  0  0  0  0  0  0  0  0  0  0
   12.7004    1.6764    0.0000 C   0  0  0  0  0  0  0  0  0  0  0  0
   11.7494    1.3674    0.0000 C   0  0  0  0  0  0  0  0  0  0  0  0
   12.9084    2.6545    0.0000 C   0  0  0  0  0  0  0  0  0  0  0  0
   15.2037    0.7285    0.0000 C   0  0  3  0  0  0  0  0  0  0  0  0
   11.0062    2.0365    0.0000 C   0  0  0  0  0  0  0  0  0  0  0  0
   12.1652    3.3237    0.0000 C   0  0  0  0  0  0  0  0  0  0  0  0
   13.4436    1.0073    0.0000 C   0  0  0  0  0  0  0  0  0  0  0  0
   14.7037    2.2673    0.0000 C   0  0  0  0  0  0  0  0  0  0  0  0
   16.0127    1.3163    0.0000 C   0  0  0  0  0  0  0  0  0  0  0  0
   15.7037    2.2673    0.0000 C   0  0  0  0  0  0  0  0  0  0  0  0
   10.4710    3.6838    0.0000 C   0  0  3  0  0  0  0  0  0  0  0  0
   15.2037   -0.2715    0.0000 C   0  0  0  0  0  0  0  0  0  0  0  0
   10.6789    4.6619    0.0000 C   0  0  0  0  0  0  0  0  0  0  0  0
   13.4716   -5.2715    0.0000 C   0  0  0  0  0  0  0  0  0  0  0  0
    9.5200    3.3748    0.0000 C   0  0  0  0  0  0  0  0  0  0  0  0
   12.6056   -4.7715    0.0000 C   0  0  0  0  0  0  0  0  0  0  0  0
   13.4716   -6.2715    0.0000 C   0  0  0  0  0  0  0  0  0  0  0  0
   11.7396   -5.2715    0.0000 C   0  0  0  0  0  0  0  0  0  0  0  0
   12.6056   -6.7715    0.0000 C   0  0  0  0  0  0  0  0  0  0  0  0
   11.7396   -6.2715    0.0000 C   0  0  0  0  0  0  0  0  0  0  0  0
   14.3376   -4.7715    0.0000 C   0  0  0  0  0  0  0  0  0  0  0  0
   16.0697   -1.7715    0.0000 C   0  0  0  0  0  0  0  0  0  0  0  0
   15.2037   -2.2715    0.0000 C   0  0  0  0  0  0  0  0  0  0  0  0
   15.2037   -3.2715    0.0000 C   0  0  0  0  0  0  0  0  0  0  0  0
    7.8258    3.7349    0.0000 C   0  0  0  0  0  0  0  0  0  0  0  0
   16.9357   -2.2715    0.0000 C   0  0  0  0  0  0  0  0  0  0  0  0
   16.0697   -3.7715    0.0000 C   0  0  0  0  0  0  0  0  0  0  0  0
   16.9357   -3.2715    0.0000 C   0  0  0  0  0  0  0  0  0  0  0  0
    7.6178    2.7567    0.0000 C   0  0  0  0  0  0  0  0  0  0  0  0
    7.0826    4.4040    0.0000 C   0  0  0  0  0  0  0  0  0  0  0  0
    6.1316    4.0950    0.0000 C   0  0  0  0  0  0  0  0  0  0  0  0
    6.6668    2.4477    0.0000 C   0  0  0  0  0  0  0  0  0  0  0  0
    8.3610    2.0876    0.0000 C   0  0  0  0  0  0  0  0  0  0  0  0
    5.9236    3.1168    0.0000 C   0  0  0  0  0  0  0  0  0  0  0  0
    5.3884    4.7641    0.0000 C   0  0  0  0  0  0  0  0  0  0  0  0
    3.6942    5.1242    0.0000 C   0  0  0  0  0  0  0  0  0  0  0  0
    3.9021    6.1024    0.0000 C   0  0  0  0  0  0  0  0  0  0  0  0
    2.7431    4.8152    0.0000 C   0  0  0  0  0  0  0  0  0  0  0  0
    3.1590    6.7715    0.0000 C   0  0  0  0  0  0  0  0  0  0  0  0
    2.0000    5.4844    0.0000 C   0  0  0  0  0  0  0  0  0  0  0  0
    2.2079    6.4625    0.0000 C   0  0  0  0  0  0  0  0  0  0  0  0
   12.5715    1.0699    0.0000 H   0  0  0  0  0  0  0  0  0  0  0  0
   13.4832    2.4223    0.0000 H   0  0  0  0  0  0  0  0  0  0  0  0
   13.2369    3.1803    0.0000 H   0  0  0  0  0  0  0  0  0  0  0  0
   11.2608    0.9857    0.0000 H   0  0  0  0  0  0  0  0  0  0  0  0
   12.0405    0.8199    0.0000 H   0  0  0  0  0  0  0  0  0  0  0  0
   14.6512    0.4470    0.0000 H   0  0  0  0  0  0  0  0  0  0  0  0
   10.4314    2.2688    0.0000 H   0  0  0  0  0  0  0  0  0  0  0  0
   10.6777    1.5107    0.0000 H   0  0  0  0  0  0  0  0  0  0  0  0
   12.6538    3.7054    0.0000 H   0  0  0  0  0  0  0  0  0  0  0  0
   11.8741    3.8711    0.0000 H   0  0  0  0  0  0  0  0  0  0  0  0
   14.7685    2.8839    0.0000 H   0  0  0  0  0  0  0  0  0  0  0  0
   14.0972    2.3962    0.0000 H   0  0  0  0  0  0  0  0  0  0  0  0
   16.3227    0.7793    0.0000 H   0  0  0  0  0  0  0  0  0  0  0  0
   16.5791    1.5684    0.0000 H   0  0  0  0  0  0  0  0  0  0  0  0
   16.3101    2.3962    0.0000 H   0  0  0  0  0  0  0  0  0  0  0  0
   15.6389    2.8839    0.0000 H   0  0  0  0  0  0  0  0  0  0  0  0
   11.0607    3.8754    0.0000 H   0  0  0  0  0  0  0  0  0  0  0  0
   11.2854    4.5330    0.0000 H   0  0  0  0  0  0  0  0  0  0  0  0
   10.8078    5.2684    0.0000 H   0  0  0  0  0  0  0  0  0  0  0  0
   10.0725    4.7908    0.0000 H   0  0  0  0  0  0  0  0  0  0  0  0
   14.0085   -5.5815    0.0000 H   0  0  0  0  0  0  0  0  0  0  0  0
   13.6837   -6.8541    0.0000 H   0  0  0  0  0  0  0  0  0  0  0  0
   14.0822   -6.1638    0.0000 H   0  0  0  0  0  0  0  0  0  0  0  0
   13.0041   -4.2966    0.0000 H   0  0  0  0  0  0  0  0  0  0  0  0
   12.2071   -4.2966    0.0000 H   0  0  0  0  0  0  0  0  0  0  0  0
   12.2071   -7.2465    0.0000 H   0  0  0  0  0  0  0  0  0  0  0  0
   13.0041   -7.2465    0.0000 H   0  0  0  0  0  0  0  0  0  0  0  0
   11.5275   -4.6889    0.0000 H   0  0  0  0  0  0  0  0  0  0  0  0
   11.1290   -5.3792    0.0000 H   0  0  0  0  0  0  0  0  0  0  0  0
   11.1290   -6.1638    0.0000 H   0  0  0  0  0  0  0  0  0  0  0  0
   11.5275   -6.8541    0.0000 H   0  0  0  0  0  0  0  0  0  0  0  0
   16.6066   -0.4615    0.0000 H   0  0  0  0  0  0  0  0  0  0  0  0
    8.9057    4.6503    0.0000 H   0  0  0  0  0  0  0  0  0  0  0  0
   13.8007   -3.4615    0.0000 H   0  0  0  0  0  0  0  0  0  0  0  0
   14.6667   -1.9615    0.0000 H   0  0  0  0  0  0  0  0  0  0  0  0
   16.0697   -4.3915    0.0000 H   0  0  0  0  0  0  0  0  0  0  0  0
   17.4726   -3.5815    0.0000 H   0  0  0  0  0  0  0  0  0  0  0  0
    7.2115    5.0105    0.0000 H   0  0  0  0  0  0  0  0  0  0  0  0
    6.5379    1.8413    0.0000 H   0  0  0  0  0  0  0  0  0  0  0  0
    7.9461    1.6268    0.0000 H   0  0  0  0  0  0  0  0  0  0  0  0
    8.8217    1.6727    0.0000 H   0  0  0  0  0  0  0  0  0  0  0  0
    8.7758    2.5484    0.0000 H   0  0  0  0  0  0  0  0  0  0  0  0
    5.3340    2.9252    0.0000 H   0  0  0  0  0  0  0  0  0  0  0  0
    4.3084    3.8486    0.0000 H   0  0  0  0  0  0  0  0  0  0  0  0
    2.6142    4.2088    0.0000 H   0  0  0  0  0  0  0  0  0  0  0  0
    3.2879    7.3780    0.0000 H   0  0  0  0  0  0  0  0  0  0  0  0
    1.4103    5.2928    0.0000 H   0  0  0  0  0  0  0  0  0  0  0  0
    1.7472    6.8774    0.0000 H   0  0  0  0  0  0  0  0  0  0  0  0
  1 39  1  0  0  0  0 
  2 50  1  0  0  0  0 
  3 20  2  0  0  0  0 
  4 25  2  0  0  0  0 
  5 28  2  0  0  0  0 
  6 34  2  0  0  0  0 
  7 48  2  0  0  0  0 
  8 17  1  0  0  0  0 
  8 20  1  0  0  0  0 
  8 21  1  0  0  0  0 
  9 18  1  0  0  0  0 
  9 19  1  0  0  0  0 
  9 24  1  0  0  0  0 
 10 25  1  0  0  0  0 
 10 35  1  0  0  0  0 
 10 86  1  0  0  0  0 
 11 28  1  0  0  0  0 
 11 38  1  0  0  0  0 
 11 87  1  0  0  0  0 
 12 34  1  0  0  0  0 
 12 37  1  0  0  0  0 
 12 88  1  0  0  0  0 
 13 48  1  0  0  0  0 
 13 49  1  0  0  0  0 
 13 98  1  0  0  0  0 
 14 15  1  0  0  0  0 
 14 16  1  0  0  0  0 
 14 20  1  0  0  0  0 
 14 55  1  0  0  0  0 
 15 18  1  0  0  0  0 
 15 58  1  0  0  0  0 
 15 59  1  0  0  0  0 
 16 19  1  0  0  0  0 
 16 56  1  0  0  0  0 
 16 57  1  0  0  0  0 
 17 22  1  0  0  0  0 
 17 25  1  0  0  0  0 
 17 60  1  0  0  0  0 
 18 61  1  0  0  0  0 
 18 62  1  0  0  0  0 
 19 63  1  0  0  0  0 
 19 64  1  0  0  0  0 
 21 23  1  0  0  0  0 
 21 65  1  0  0  0  0 
 21 66  1  0  0  0  0 
 22 23  1  0  0  0  0 
 22 67  1  0  0  0  0 
 22 68  1  0  0  0  0 
 23 69  1  0  0  0  0 
 23 70  1  0  0  0  0 
 24 26  1  0  0  0  0 
 24 28  1  0  0  0  0 
 24 71  1  0  0  0  0 
 26 72  1  0  0  0  0 
 26 73  1  0  0  0  0 
 26 74  1  0  0  0  0 
 27 29  1  0  0  0  0 
 27 30  1  0  0  0  0 
 27 34  1  0  0  0  0 
 27 75  1  0  0  0  0 
 29 31  1  0  0  0  0 
 29 78  1  0  0  0  0 
 29 79  1  0  0  0  0 
 30 32  1  0  0  0  0 
 30 76  1  0  0  0  0 
 30 77  1  0  0  0  0 
 31 33  1  0  0  0  0 
 31 82  1  0  0  0  0 
 31 83  1  0  0  0  0 
 32 33  1  0  0  0  0 
 32 80  1  0  0  0  0 
 32 81  1  0  0  0  0 
 33 84  1  0  0  0  0 
 33 85  1  0  0  0  0 
 35 36  1  0  0  0  0 
 35 39  2  0  0  0  0 
 36 37  2  0  0  0  0 
 36 89  1  0  0  0  0 
 37 40  1  0  0  0  0 
 38 42  2  0  0  0  0 
 38 43  1  0  0  0  0 
 39 41  1  0  0  0  0 
 40 41  2  0  0  0  0 
 40 90  1  0  0  0  0 
 41 91  1  0  0  0  0 
 42 45  1  0  0  0  0 
 42 46  1  0  0  0  0 
 43 44  2  0  0  0  0 
 43 92  1  0  0  0  0 
 44 47  1  0  0  0  0 
 44 48  1  0  0  0  0 
 45 47  2  0  0  0  0 
 45 93  1  0  0  0  0 
 46 94  1  0  0  0  0 
 46 95  1  0  0  0  0 
 46 96  1  0  0  0  0 
 47 97  1  0  0  0  0 
 49 50  1  0  0  0  0 
 49 51  2  0  0  0  0 
 50 52  2  0  0  0  0 
 51 53  1  0  0  0  0 
 51 99  1  0  0  0  0 
 52 54  1  0  0  0  0 
 52100  1  0  0  0  0 
 53 54  2  0  0  0  0 
 53101  1  0  0  0  0 
 54102  1  0  0  0  0 
M  END
> <cdk:Title>
50108870

> <cdk:Remark>
null

> <PUBCHEM_COMPOUND_CID>
50108870

> <PUBCHEM_COMPOUND_CANONICALIZED>
1

> <PUBCHEM_CACTVS_COMPLEXITY>
1320

> <PUBCHEM_CACTVS_HBOND_ACCEPTOR>
8

> <PUBCHEM_CACTVS_HBOND_DONOR>
4

> <PUBCHEM_CACTVS_ROTATABLE_BOND>
10

> <PUBCHEM_CACTVS_SUBSKEYS>
AAADcfB/uYAAAAAAAAAAAAAAAAAAAWAAAAA8YMGCAAAAAAABUAAAHwAQAAAADSjBmAwywIPAAACIAiVSUACCAAAlAgAIiAGIZMgIYDLA1fGUIQhglgDIyYcciQCOQAAAQAQCAACAAACACAQAAAAAAAAAAA==

> <PUBCHEM_IUPAC_OPENEYE_NAME>
N-[5-(cyclohexanecarbonylamino)-2-fluoro-phenyl]-1-[1-[2-[5-[(2-fluorophenyl)carbamoyl]-2-methyl-anilino]-1-methyl-2-oxo-ethyl]piperidine-4-carbonyl]pyrrolidine-2-carboxamide

> <PUBCHEM_IUPAC_CAS_NAME>
N-[5-[[cyclohexyl(oxo)methyl]amino]-2-fluorophenyl]-1-[[1-[1-[5-[(2-fluoroanilino)-oxomethyl]-2-methylanilino]-1-oxopropan-2-yl]-4-piperidinyl]-oxomethyl]-2-pyrrolidinecarboxamide

> <PUBCHEM_IUPAC_NAME>
N-[5-(cyclohexanecarbonylamino)-2-fluorophenyl]-1-[1-[1-[5-[(2-fluorophenyl)carbamoyl]-2-methylanilino]-1-oxopropan-2-yl]piperidine-4-carbonyl]pyrrolidine-2-carboxamide

> <PUBCHEM_IUPAC_SYSTEMATIC_NAME>
N-[5-(cyclohexylcarbonylamino)-2-fluoranyl-phenyl]-1-[1-[1-[[5-[(2-fluorophenyl)carbamoyl]-2-methyl-phenyl]amino]-1-oxidanylidene-propan-2-yl]piperidin-4-yl]carbonyl-pyrrolidine-2-carboxamide

> <PUBCHEM_IUPAC_TRADITIONAL_NAME>
N-[5-(cyclohexanecarbonylamino)-2-fluoro-phenyl]-1-[1-[2-[5-[(2-fluorophenyl)carbamoyl]-2-methyl-anilino]-2-keto-1-methyl-ethyl]isonipecotoyl]pyrrolidine-2-carboxamide

> <PUBCHEM_IUPAC_INCHI>
InChI=1S/C41H48F2N6O5/c1-25-14-15-29(39(52)45-33-12-7-6-11-31(33)42)23-34(25)46-37(50)26(2)48-21-18-28(19-22-48)41(54)49-20-8-13-36(49)40(53)47-35-24-30(16-17-32(35)43)44-38(51)27-9-4-3-5-10-27/h6-7,11-12,14-17,23-24,26-28,36H,3-5,8-10,13,18-22H2,1-2H3,(H,44,51)(H,45,52)(H,46,50)(H,47,53)

> <PUBCHEM_IUPAC_INCHIKEY>
HFYQURSLPGMZPG-UHFFFAOYSA-N

> <PUBCHEM_XLOGP3_AA>
5.6

> <PUBCHEM_EXACT_MASS>
742.365425

> <PUBCHEM_MOLECULAR_FORMULA>
C41H48F2N6O5

> <PUBCHEM_MOLECULAR_WEIGHT>
742.853826

> <PUBCHEM_OPENEYE_CAN_SMILES>
CC1=C(C=C(C=C1)C(=O)NC2=CC=CC=C2F)NC(=O)C(C)N3CCC(CC3)C(=O)N4CCCC4C(=O)NC5=C(C=CC(=C5)NC(=O)C6CCCCC6)F

> <PUBCHEM_OPENEYE_ISO_SMILES>
CC1=C(C=C(C=C1)C(=O)NC2=CC=CC=C2F)NC(=O)C(C)N3CCC(CC3)C(=O)N4CCCC4C(=O)NC5=C(C=CC(=C5)NC(=O)C6CCCCC6)F

> <PUBCHEM_CACTVS_TPSA>
140

> <PUBCHEM_MONOISOTOPIC_WEIGHT>
742.365425

> <PUBCHEM_TOTAL_CHARGE>
0

> <PUBCHEM_HEAVY_ATOM_COUNT>
54

> <PUBCHEM_ATOM_DEF_STEREO_COUNT>
0

> <PUBCHEM_ATOM_UDEF_STEREO_COUNT>
2

> <PUBCHEM_BOND_DEF_STEREO_COUNT>
0

> <PUBCHEM_BOND_UDEF_STEREO_COUNT>
0

> <PUBCHEM_ISOTOPIC_ATOM_COUNT>
0

> <PUBCHEM_COMPONENT_COUNT>
1

> <PUBCHEM_CACTVS_TAUTO_COUNT>
135

> <PUBCHEM_COORDINATE_TYPE>
1

> <PUBCHEM_BONDANNOTATIONS>
17  25  3

$$$$
