15919642
  CDK     1223141415

 76 78  0  0  0  0  0  0  0  0999 V2000
    4.5981   -4.2500    0.0000 O   0  0  0  0  0  0  0  0  0  0  0  0
    6.3301   -4.2500    0.0000 O   0  0  0  0  0  0  0  0  0  0  0  0
    5.4641    7.2500    0.0000 C   0  0  0  0  0  0  0  0  0  0  0  0
    5.4641    5.2500    0.0000 C   0  0  0  0  0  0  0  0  0  0  0  0
    4.5981    6.7500    0.0000 C   0  0  0  0  0  0  0  0  0  0  0  0
    6.3301    6.7500    0.0000 C   0  0  0  0  0  0  0  0  0  0  0  0
    4.5981    5.7500    0.0000 C   0  0  0  0  0  0  0  0  0  0  0  0
    6.3301    5.7500    0.0000 C   0  0  0  0  0  0  0  0  0  0  0  0
    5.4641    8.2500    0.0000 C   0  0  0  0  0  0  0  0  0  0  0  0
    5.4641    4.2500    0.0000 C   0  0  0  0  0  0  0  0  0  0  0  0
    6.3301    8.7500    0.0000 C   0  0  0  0  0  0  0  0  0  0  0  0
    4.5981    3.7500    0.0000 C   0  0  0  0  0  0  0  0  0  0  0  0
    6.3301    3.7500    0.0000 C   0  0  0  0  0  0  0  0  0  0  0  0
    6.3301    9.7500    0.0000 C   0  0  0  0  0  0  0  0  0  0  0  0
    4.5981    2.7500    0.0000 C   0  0  0  0  0  0  0  0  0  0  0  0
    6.3301    2.7500    0.0000 C   0  0  0  0  0  0  0  0  0  0  0  0
    5.4641    2.2500    0.0000 C   0  0  0  0  0  0  0  0  0  0  0  0
    5.4641    1.2500    0.0000 C   0  0  0  0  0  0  0  0  0  0  0  0
    3.7320   -6.7500    0.0000 C   0  0  0  0  0  0  0  0  0  0  0  0
    2.8660   -7.2500    0.0000 C   0  0  0  0  0  0  0  0  0  0  0  0
    3.7320   -5.7500    0.0000 C   0  0  0  0  0  0  0  0  0  0  0  0
    2.8660   -8.2500    0.0000 C   0  0  0  0  0  0  0  0  0  0  0  0
    4.5981   -5.2500    0.0000 C   0  0  3  0  0  0  0  0  0  0  0  0
    2.0000   -8.7500    0.0000 C   0  0  0  0  0  0  0  0  0  0  0  0
    5.4641   -5.7500    0.0000 C   0  0  0  0  0  0  0  0  0  0  0  0
    5.4641    0.2500    0.0000 C   0  0  0  0  0  0  0  0  0  0  0  0
    2.0000   -9.7500    0.0000 C   0  0  0  0  0  0  0  0  0  0  0  0
    5.4641   -0.7500    0.0000 C   0  0  0  0  0  0  0  0  0  0  0  0
    5.4641   -3.7500    0.0000 C   0  0  0  0  0  0  0  0  0  0  0  0
    5.4641   -2.7500    0.0000 C   0  0  0  0  0  0  0  0  0  0  0  0
    4.5981   -1.2500    0.0000 C   0  0  0  0  0  0  0  0  0  0  0  0
    6.3301   -1.2500    0.0000 C   0  0  0  0  0  0  0  0  0  0  0  0
    4.5981   -2.2500    0.0000 C   0  0  0  0  0  0  0  0  0  0  0  0
    6.3301   -2.2500    0.0000 C   0  0  0  0  0  0  0  0  0  0  0  0
    6.0010    7.5600    0.0000 H   0  0  0  0  0  0  0  0  0  0  0  0
    6.0010    4.9400    0.0000 H   0  0  0  0  0  0  0  0  0  0  0  0
    4.3860    7.3326    0.0000 H   0  0  0  0  0  0  0  0  0  0  0  0
    3.9875    6.6423    0.0000 H   0  0  0  0  0  0  0  0  0  0  0  0
    6.9407    6.6423    0.0000 H   0  0  0  0  0  0  0  0  0  0  0  0
    6.5422    7.3326    0.0000 H   0  0  0  0  0  0  0  0  0  0  0  0
    6.5422    5.1674    0.0000 H   0  0  0  0  0  0  0  0  0  0  0  0
    6.9407    5.8577    0.0000 H   0  0  0  0  0  0  0  0  0  0  0  0
    3.9875    5.8577    0.0000 H   0  0  0  0  0  0  0  0  0  0  0  0
    4.3860    5.1674    0.0000 H   0  0  0  0  0  0  0  0  0  0  0  0
    5.2520    8.8326    0.0000 H   0  0  0  0  0  0  0  0  0  0  0  0
    4.8535    8.1423    0.0000 H   0  0  0  0  0  0  0  0  0  0  0  0
    6.5422    8.1674    0.0000 H   0  0  0  0  0  0  0  0  0  0  0  0
    6.9407    8.8577    0.0000 H   0  0  0  0  0  0  0  0  0  0  0  0
    4.0611    4.0600    0.0000 H   0  0  0  0  0  0  0  0  0  0  0  0
    6.8671    4.0600    0.0000 H   0  0  0  0  0  0  0  0  0  0  0  0
    6.9501    9.7500    0.0000 H   0  0  0  0  0  0  0  0  0  0  0  0
    6.3301   10.3700    0.0000 H   0  0  0  0  0  0  0  0  0  0  0  0
    5.7101    9.7500    0.0000 H   0  0  0  0  0  0  0  0  0  0  0  0
    4.0611    2.4400    0.0000 H   0  0  0  0  0  0  0  0  0  0  0  0
    6.8671    2.4400    0.0000 H   0  0  0  0  0  0  0  0  0  0  0  0
    3.9441   -7.3326    0.0000 H   0  0  0  0  0  0  0  0  0  0  0  0
    4.3426   -6.6423    0.0000 H   0  0  0  0  0  0  0  0  0  0  0  0
    2.6540   -6.6674    0.0000 H   0  0  0  0  0  0  0  0  0  0  0  0
    2.2554   -7.3577    0.0000 H   0  0  0  0  0  0  0  0  0  0  0  0
    3.5200   -5.1674    0.0000 H   0  0  0  0  0  0  0  0  0  0  0  0
    3.1215   -5.8577    0.0000 H   0  0  0  0  0  0  0  0  0  0  0  0
    3.0781   -8.8326    0.0000 H   0  0  0  0  0  0  0  0  0  0  0  0
    3.4766   -8.1423    0.0000 H   0  0  0  0  0  0  0  0  0  0  0  0
    5.1350   -4.9400    0.0000 H   0  0  0  0  0  0  0  0  0  0  0  0
    1.7880   -8.1674    0.0000 H   0  0  0  0  0  0  0  0  0  0  0  0
    1.3894   -8.8577    0.0000 H   0  0  0  0  0  0  0  0  0  0  0  0
    5.1541   -6.2869    0.0000 H   0  0  0  0  0  0  0  0  0  0  0  0
    6.0010   -6.0600    0.0000 H   0  0  0  0  0  0  0  0  0  0  0  0
    5.7741   -5.2131    0.0000 H   0  0  0  0  0  0  0  0  0  0  0  0
    1.3800   -9.7500    0.0000 H   0  0  0  0  0  0  0  0  0  0  0  0
    2.0000  -10.3700    0.0000 H   0  0  0  0  0  0  0  0  0  0  0  0
    2.6200   -9.7500    0.0000 H   0  0  0  0  0  0  0  0  0  0  0  0
    4.0611   -0.9400    0.0000 H   0  0  0  0  0  0  0  0  0  0  0  0
    6.8671   -0.9400    0.0000 H   0  0  0  0  0  0  0  0  0  0  0  0
    4.0611   -2.5600    0.0000 H   0  0  0  0  0  0  0  0  0  0  0  0
    6.8671   -2.5600    0.0000 H   0  0  0  0  0  0  0  0  0  0  0  0
  1 23  1  0  0  0  0 
  1 29  1  0  0  0  0 
  2 29  2  0  0  0  0 
  3  5  1  0  0  0  0 
  3  6  1  0  0  0  0 
  3  9  1  0  0  0  0 
  3 35  1  0  0  0  0 
  4  7  1  0  0  0  0 
  4  8  1  0  0  0  0 
  4 10  1  0  0  0  0 
  4 36  1  0  0  0  0 
  5  7  1  0  0  0  0 
  5 37  1  0  0  0  0 
  5 38  1  0  0  0  0 
  6  8  1  0  0  0  0 
  6 39  1  0  0  0  0 
  6 40  1  0  0  0  0 
  7 43  1  0  0  0  0 
  7 44  1  0  0  0  0 
  8 41  1  0  0  0  0 
  8 42  1  0  0  0  0 
  9 11  1  0  0  0  0 
  9 45  1  0  0  0  0 
  9 46  1  0  0  0  0 
 10 12  2  0  0  0  0 
 10 13  1  0  0  0  0 
 11 14  1  0  0  0  0 
 11 47  1  0  0  0  0 
 11 48  1  0  0  0  0 
 12 15  1  0  0  0  0 
 12 49  1  0  0  0  0 
 13 16  2  0  0  0  0 
 13 50  1  0  0  0  0 
 14 51  1  0  0  0  0 
 14 52  1  0  0  0  0 
 14 53  1  0  0  0  0 
 15 17  2  0  0  0  0 
 15 54  1  0  0  0  0 
 16 17  1  0  0  0  0 
 16 55  1  0  0  0  0 
 17 18  1  0  0  0  0 
 18 26  3  0  0  0  0 
 19 20  1  0  0  0  0 
 19 21  1  0  0  0  0 
 19 56  1  0  0  0  0 
 19 57  1  0  0  0  0 
 20 22  1  0  0  0  0 
 20 58  1  0  0  0  0 
 20 59  1  0  0  0  0 
 21 23  1  0  0  0  0 
 21 60  1  0  0  0  0 
 21 61  1  0  0  0  0 
 22 24  1  0  0  0  0 
 22 62  1  0  0  0  0 
 22 63  1  0  0  0  0 
 23 25  1  0  0  0  0 
 23 64  1  0  0  0  0 
 24 27  1  0  0  0  0 
 24 65  1  0  0  0  0 
 24 66  1  0  0  0  0 
 25 67  1  0  0  0  0 
 25 68  1  0  0  0  0 
 25 69  1  0  0  0  0 
 26 28  1  0  0  0  0 
 27 70  1  0  0  0  0 
 27 71  1  0  0  0  0 
 27 72  1  0  0  0  0 
 28 31  2  0  0  0  0 
 28 32  1  0  0  0  0 
 29 30  1  0  0  0  0 
 30 33  2  0  0  0  0 
 30 34  1  0  0  0  0 
 31 33  1  0  0  0  0 
 31 73  1  0  0  0  0 
 32 34  2  0  0  0  0 
 32 74  1  0  0  0  0 
 33 75  1  0  0  0  0 
 34 76  1  0  0  0  0 
M  END
> <cdk:Title>
15919642

> <cdk:Remark>
null

> <PUBCHEM_COMPOUND_CID>
15919642

> <PUBCHEM_COMPOUND_CANONICALIZED>
1

> <PUBCHEM_CACTVS_COMPLEXITY>
630

> <PUBCHEM_CACTVS_HBOND_ACCEPTOR>
2

> <PUBCHEM_CACTVS_HBOND_DONOR>
0

> <PUBCHEM_CACTVS_ROTATABLE_BOND>
13

> <PUBCHEM_CACTVS_SUBSKEYS>
AAADcfB8MAAAAAAAAAAAAAAAAAAAAAAAAAAwYMAAAAAAAAABQAAAGgAAAAAADRSgmAIyCIAABADIEiDSCAgCAAAkAAAIiAEACMgIJjKANRiCMQAkwAEIqYeIyPCOwAAAAAAAAACAAAAAAAAAAAAAAAAAAA==

> <PUBCHEM_IUPAC_OPENEYE_NAME>
1-methylheptyl 4-[2-[4-(4-propylcyclohexyl)phenyl]ethynyl]benzoate

> <PUBCHEM_IUPAC_CAS_NAME>
4-[2-[4-(4-propylcyclohexyl)phenyl]ethynyl]benzoic acid octan-2-yl ester

> <PUBCHEM_IUPAC_NAME>
octan-2-yl 4-[2-[4-(4-propylcyclohexyl)phenyl]ethynyl]benzoate

> <PUBCHEM_IUPAC_SYSTEMATIC_NAME>
octan-2-yl 4-[2-[4-(4-propylcyclohexyl)phenyl]ethynyl]benzoate

> <PUBCHEM_IUPAC_TRADITIONAL_NAME>
4-[2-[4-(4-propylcyclohexyl)phenyl]ethynyl]benzoic acid 1-methylheptyl ester

> <PUBCHEM_IUPAC_INCHI>
InChI=1S/C32H42O2/c1-4-6-7-8-10-25(3)34-32(33)31-23-17-28(18-24-31)12-11-27-15-21-30(22-16-27)29-19-13-26(9-5-2)14-20-29/h15-18,21-26,29H,4-10,13-14,19-20H2,1-3H3

> <PUBCHEM_IUPAC_INCHIKEY>
XYVGXXOCBFDUAI-UHFFFAOYSA-N

> <PUBCHEM_XLOGP3_AA>
11

> <PUBCHEM_EXACT_MASS>
458.318481

> <PUBCHEM_MOLECULAR_FORMULA>
C32H42O2

> <PUBCHEM_MOLECULAR_WEIGHT>
458.67468

> <PUBCHEM_OPENEYE_CAN_SMILES>
CCCCCCC(C)OC(=O)C1=CC=C(C=C1)C#CC2=CC=C(C=C2)C3CCC(CC3)CCC

> <PUBCHEM_OPENEYE_ISO_SMILES>
CCCCCCC(C)OC(=O)C1=CC=C(C=C1)C#CC2=CC=C(C=C2)C3CCC(CC3)CCC

> <PUBCHEM_CACTVS_TPSA>
26.3

> <PUBCHEM_MONOISOTOPIC_WEIGHT>
458.318481

> <PUBCHEM_TOTAL_CHARGE>
0

> <PUBCHEM_HEAVY_ATOM_COUNT>
34

> <PUBCHEM_ATOM_DEF_STEREO_COUNT>
0

> <PUBCHEM_ATOM_UDEF_STEREO_COUNT>
1

> <PUBCHEM_BOND_DEF_STEREO_COUNT>
0

> <PUBCHEM_BOND_UDEF_STEREO_COUNT>
0

> <PUBCHEM_ISOTOPIC_ATOM_COUNT>
0

> <PUBCHEM_COMPONENT_COUNT>
1

> <PUBCHEM_CACTVS_TAUTO_COUNT>
1

> <PUBCHEM_COORDINATE_TYPE>
1

> <PUBCHEM_BONDANNOTATIONS>
10  12  8

$$$$
