
  CDK     0202151410

 21 22  0  0  0  0  0  0  0  0999 V2000
    7.1962   -4.7320    0.0000 O   0  0  0  0  0  0  0  0  0  0  0  0
    8.9282   -0.7321    0.0000 O   0  0  0  0  0  0  0  0  0  0  0  0
    8.0622    0.7679    0.0000 N   0  0  0  0  0  0  0  0  0  0  0  0
    7.1962   -0.7321    0.0000 N   0  0  0  0  0  0  0  0  0  0  0  0
    5.4641   -3.7320    0.0000 C   0  0  0  0  0  0  0  0  0  0  0  0
    5.4641   -4.7320    0.0000 C   0  0  0  0  0  0  0  0  0  0  0  0
    4.5981   -3.2320    0.0000 C   0  0  0  0  0  0  0  0  0  0  0  0
    8.0622    2.7680    0.0000 C   0  0  0  0  0  0  0  0  0  0  0  0
    6.3301   -3.2320    0.0000 C   0  0  0  0  0  0  0  0  0  0  0  0
    8.9282    2.2680    0.0000 C   0  0  0  0  0  0  0  0  0  0  0  0
    7.1962    2.2680    0.0000 C   0  0  0  0  0  0  0  0  0  0  0  0
    8.9282    1.2680    0.0000 C   0  0  0  0  0  0  0  0  0  0  0  0
    7.1962    1.2680    0.0000 C   0  0  0  0  0  0  0  0  0  0  0  0
    8.5622    3.6340    0.0000 C   0  0  0  0  0  0  0  0  0  0  0  0
    6.3301   -2.2320    0.0000 C   0  0  0  0  0  0  0  0  0  0  0  0
    7.1962   -3.7320    0.0000 C   0  0  0  0  0  0  0  0  0  0  0  0
    8.0622   -0.2321    0.0000 C   0  0  0  0  0  0  0  0  0  0  0  0
    7.1962   -1.7320    0.0000 C   0  0  0  0  0  0  0  0  0  0  0  0
    7.5622    3.6340    0.0000 C   0  0  0  0  0  0  0  0  0  0  0  0
    8.0622   -3.2320    0.0000 C   0  0  0  0  0  0  0  0  0  0  0  0
    8.0622   -2.2320    0.0000 C   0  0  0  0  0  0  0  0  0  0  0  0
  1 16  1  0  0  0  0 
  2 17  1  0  0  0  0 
  3 12  1  0  0  0  0 
  3 13  1  0  0  0  0 
  3 17  1  0  0  0  0 
  4 17  1  0  0  0  0 
  4 18  1  0  0  0  0 
  5  6  1  0  0  0  0 
  5  7  1  0  0  0  0 
  5  9  1  0  0  0  0 
  8 10  1  0  0  0  0 
  8 11  1  0  0  0  0 
  8 14  1  0  0  0  0 
  8 19  1  0  0  0  0 
  9 15  1  0  0  0  0 
  9 16  1  0  0  0  0 
 10 12  1  0  0  0  0 
 11 13  1  0  0  0  0 
 15 18  1  0  0  0  0 
 16 20  1  0  0  0  0 
 18 21  1  0  0  0  0 
 20 21  1  0  0  0  0 
M  END
> <PUBCHEM_COMPOUND_CID>
10278353

$$$$

  CDK     0202151410

 21 21  0  0  0  0  0  0  0  0999 V2000
   11.6603   -0.2500    0.0000 S   0  0  0  0  0  0  0  0  0  0  0  0
    9.9282   -4.2500    0.0000 O   0  0  0  0  0  0  0  0  0  0  0  0
   12.6603   -0.2500    0.0000 O   0  0  0  0  0  0  0  0  0  0  0  0
   10.6603   -0.2500    0.0000 O   0  0  0  0  0  0  0  0  0  0  0  0
    9.0622   -2.7500    0.0000 N   0  0  0  0  0  0  0  0  0  0  0  0
   11.6603    0.7500    0.0000 N   0  0  0  0  0  0  0  0  0  0  0  0
    5.5981   -2.7500    0.0000 C   0  0  0  0  0  0  0  0  0  0  0  0
    6.4641   -1.2500    0.0000 C   0  0  0  0  0  0  0  0  0  0  0  0
    7.3301   -2.7500    0.0000 C   0  0  0  0  0  0  0  0  0  0  0  0
    6.4641   -3.2500    0.0000 C   0  0  0  0  0  0  0  0  0  0  0  0
    7.3301   -1.7500    0.0000 C   0  0  0  0  0  0  0  0  0  0  0  0
    8.1962   -3.2500    0.0000 C   0  0  0  0  0  0  0  0  0  0  0  0
   10.7942   -2.7500    0.0000 C   0  0  0  0  0  0  0  0  0  0  0  0
    9.9282   -3.2500    0.0000 C   0  0  0  0  0  0  0  0  0  0  0  0
   11.6603   -1.2500    0.0000 C   0  0  0  0  0  0  0  0  0  0  0  0
   11.6603   -3.2500    0.0000 C   0  0  0  0  0  0  0  0  0  0  0  0
   10.7942   -1.7500    0.0000 C   0  0  0  0  0  0  0  0  0  0  0  0
    9.0622   -1.7500    0.0000 C   0  0  0  0  0  0  0  0  0  0  0  0
   12.5263   -1.7500    0.0000 C   0  0  0  0  0  0  0  0  0  0  0  0
   12.5263   -2.7500    0.0000 C   0  0  0  0  0  0  0  0  0  0  0  0
   11.6603   -4.2500    0.0000 C   0  0  0  0  0  0  0  0  0  0  0  0
  1  3  1  0  0  0  0 
  1  4  1  0  0  0  0 
  1  6  1  0  0  0  0 
  1 15  1  0  0  0  0 
  2 14  1  0  0  0  0 
  5 12  1  0  0  0  0 
  5 14  1  0  0  0  0 
  5 18  1  0  0  0  0 
  7 10  1  0  0  0  0 
  8 11  1  0  0  0  0 
  9 10  1  0  0  0  0 
  9 11  1  0  0  0  0 
  9 12  1  0  0  0  0 
 13 14  1  0  0  0  0 
 13 16  1  0  0  0  0 
 13 17  1  0  0  0  0 
 15 17  1  0  0  0  0 
 15 19  1  0  0  0  0 
 16 20  1  0  0  0  0 
 16 21  1  0  0  0  0 
 19 20  1  0  0  0  0 
M  END
> <PUBCHEM_COMPOUND_CID>
38395110

$$$$
