51682807
  CDK     0513152029

 36 36  0  0  0  0  0  0  0  0999 V2000
    4.5981   -1.0600    0.0000 S   0  0  0  0  0  0  0  0  0  0  0  0
    2.0000    3.4400    0.0000 O   0  0  0  0  0  0  0  0  0  0  0  0
    2.8660   -0.0600    0.0000 O   0  0  0  0  0  0  0  0  0  0  0  0
    3.7320    1.4400    0.0000 N   0  0  0  0  0  0  0  0  0  0  0  0
    2.8660    2.9400    0.0000 C   0  0  1  0  0  0  0  0  0  0  0  0
    3.7320    3.4400    0.0000 C   0  0  0  0  0  0  0  0  0  0  0  0
    4.5981    2.9400    0.0000 C   0  0  0  0  0  0  0  0  0  0  0  0
    2.8660    1.9400    0.0000 C   0  0  0  0  0  0  0  0  0  0  0  0
    4.5981    1.9400    0.0000 C   0  0  0  0  0  0  0  0  0  0  0  0
    3.7320    0.4400    0.0000 C   0  0  0  0  0  0  0  0  0  0  0  0
    4.5981   -0.0600    0.0000 C   0  0  0  0  0  0  0  0  0  0  0  0
    5.4641   -1.5600    0.0000 C   0  0  0  0  0  0  0  0  0  0  0  0
    5.4641   -2.5600    0.0000 C   0  0  0  0  0  0  0  0  0  0  0  0
    6.3301   -3.0600    0.0000 C   0  0  0  0  0  0  0  0  0  0  0  0
    6.3301   -4.0600    0.0000 C   0  0  0  0  0  0  0  0  0  0  0  0
    2.8660    3.5600    0.0000 H   0  0  0  0  0  0  0  0  0  0  0  0
    4.1306    3.9150    0.0000 H   0  0  0  0  0  0  0  0  0  0  0  0
    3.3335    3.9150    0.0000 H   0  0  0  0  0  0  0  0  0  0  0  0
    5.2087    2.8323    0.0000 H   0  0  0  0  0  0  0  0  0  0  0  0
    4.8101    3.5226    0.0000 H   0  0  0  0  0  0  0  0  0  0  0  0
    2.2554    2.0477    0.0000 H   0  0  0  0  0  0  0  0  0  0  0  0
    2.6540    1.3574    0.0000 H   0  0  0  0  0  0  0  0  0  0  0  0
    4.8101    1.3574    0.0000 H   0  0  0  0  0  0  0  0  0  0  0  0
    5.2087    2.0477    0.0000 H   0  0  0  0  0  0  0  0  0  0  0  0
    5.2087   -0.1677    0.0000 H   0  0  0  0  0  0  0  0  0  0  0  0
    4.8101    0.5226    0.0000 H   0  0  0  0  0  0  0  0  0  0  0  0
    2.0000    4.0600    0.0000 H   0  0  0  0  0  0  0  0  0  0  0  0
    6.0747   -1.6677    0.0000 H   0  0  0  0  0  0  0  0  0  0  0  0
    5.6762   -0.9774    0.0000 H   0  0  0  0  0  0  0  0  0  0  0  0
    4.8535   -2.4523    0.0000 H   0  0  0  0  0  0  0  0  0  0  0  0
    5.2520   -3.1426    0.0000 H   0  0  0  0  0  0  0  0  0  0  0  0
    6.9407   -3.1677    0.0000 H   0  0  0  0  0  0  0  0  0  0  0  0
    6.5422   -2.4774    0.0000 H   0  0  0  0  0  0  0  0  0  0  0  0
    5.7101   -4.0600    0.0000 H   0  0  0  0  0  0  0  0  0  0  0  0
    6.3301   -4.6800    0.0000 H   0  0  0  0  0  0  0  0  0  0  0  0
    6.9501   -4.0600    0.0000 H   0  0  0  0  0  0  0  0  0  0  0  0
  1 11  1  0  0  0  0 
  1 12  1  0  0  0  0 
  5  2  1  1  0  0  0 
  2 27  1  0  0  0  0 
  3 10  2  0  0  0  0 
  4  8  1  0  0  0  0 
  4  9  1  0  0  0  0 
  4 10  1  0  0  0  0 
  5  6  1  0  0  0  0 
  5  8  1  0  0  0  0 
  5 16  1  0  0  0  0 
  6  7  1  0  0  0  0 
  6 17  1  0  0  0  0 
  6 18  1  0  0  0  0 
  7  9  1  0  0  0  0 
  7 19  1  0  0  0  0 
  7 20  1  0  0  0  0 
  8 21  1  0  0  0  0 
  8 22  1  0  0  0  0 
  9 23  1  0  0  0  0 
  9 24  1  0  0  0  0 
 10 11  1  0  0  0  0 
 11 25  1  0  0  0  0 
 11 26  1  0  0  0  0 
 12 13  1  0  0  0  0 
 12 28  1  0  0  0  0 
 12 29  1  0  0  0  0 
 13 14  1  0  0  0  0 
 13 30  1  0  0  0  0 
 13 31  1  0  0  0  0 
 14 15  1  0  0  0  0 
 14 32  1  0  0  0  0 
 14 33  1  0  0  0  0 
 15 34  1  0  0  0  0 
 15 35  1  0  0  0  0 
 15 36  1  0  0  0  0 
M  END
> <cdk:Title>
51682807

> <cdk:Remark>
null

> <PUBCHEM_COMPOUND_CID>
51682807

> <PUBCHEM_COMPOUND_CANONICALIZED>
1

> <PUBCHEM_CACTVS_COMPLEXITY>
199

> <PUBCHEM_CACTVS_HBOND_ACCEPTOR>
3

> <PUBCHEM_CACTVS_HBOND_DONOR>
1

> <PUBCHEM_CACTVS_ROTATABLE_BOND>
5

> <PUBCHEM_CACTVS_SUBSKEYS>
AAADceByMABAAAAAAAAAAAAAAAAAAAAAAAAsAAAAAAAAAAAAAAAAHgQACAAACBTlwAaCAAMAAggIAAEQEAAAAAAAABAAAAAIAAACEAIggAAEQAAEBgCwAAAwAAAAAAAAAAAAAAAAAAAAAAAAAAAAAAAAAA==

> <PUBCHEM_IUPAC_OPENEYE_NAME>
2-butylsulfanyl-1-[(3S)-3-hydroxy-1-piperidyl]ethanone

> <PUBCHEM_IUPAC_CAS_NAME>
2-(butylthio)-1-[(3S)-3-hydroxy-1-piperidinyl]ethanone

> <PUBCHEM_IUPAC_NAME>
2-butylsulfanyl-1-[(3S)-3-hydroxypiperidin-1-yl]ethanone

> <PUBCHEM_IUPAC_SYSTEMATIC_NAME>
2-butylsulfanyl-1-[(3S)-3-oxidanylpiperidin-1-yl]ethanone

> <PUBCHEM_IUPAC_TRADITIONAL_NAME>
2-(butylthio)-1-[(3S)-3-hydroxypiperidino]ethanone

> <PUBCHEM_IUPAC_INCHI>
InChI=1S/C11H21NO2S/c1-2-3-7-15-9-11(14)12-6-4-5-10(13)8-12/h10,13H,2-9H2,1H3/t10-/m0/s1

> <PUBCHEM_IUPAC_INCHIKEY>
NJYANSWIVOSOJI-JTQLQIEISA-N

> <PUBCHEM_XLOGP3_AA>
1.5

> <PUBCHEM_EXACT_MASS>
231.1293

> <PUBCHEM_MOLECULAR_FORMULA>
C11H21NO2S

> <PUBCHEM_MOLECULAR_WEIGHT>
231.35494

> <PUBCHEM_OPENEYE_CAN_SMILES>
CCCCSCC(=O)N1CCCC(C1)O

> <PUBCHEM_OPENEYE_ISO_SMILES>
CCCCSCC(=O)N1CCC[C@@H](C1)O

> <PUBCHEM_CACTVS_TPSA>
65.8

> <PUBCHEM_MONOISOTOPIC_WEIGHT>
231.1293

> <PUBCHEM_TOTAL_CHARGE>
0

> <PUBCHEM_HEAVY_ATOM_COUNT>
15

> <PUBCHEM_ATOM_DEF_STEREO_COUNT>
1

> <PUBCHEM_ATOM_UDEF_STEREO_COUNT>
0

> <PUBCHEM_BOND_DEF_STEREO_COUNT>
0

> <PUBCHEM_BOND_UDEF_STEREO_COUNT>
0

> <PUBCHEM_ISOTOPIC_ATOM_COUNT>
0

> <PUBCHEM_COMPONENT_COUNT>
1

> <PUBCHEM_CACTVS_TAUTO_COUNT>
1

> <PUBCHEM_COORDINATE_TYPE>
1

> <PUBCHEM_BONDANNOTATIONS>
5  2  5

$$$$
51682807
  CDK     0513152035

 36 36  0  0  0  0  0  0  0  0999 V2000
    4.5981   -1.0600    0.0000 S   0  0  0  0  0  0  0  0  0  0  0  0
    2.0000    3.4400    0.0000 O   0  0  0  0  0  0  0  0  0  0  0  0
    2.8660   -0.0600    0.0000 O   0  0  0  0  0  0  0  0  0  0  0  0
    3.7320    1.4400    0.0000 N   0  0  0  0  0  0  0  0  0  0  0  0
    2.8660    2.9400    0.0000 C   0  0  1  0  0  0  0  0  0  0  0  0
    3.7320    3.4400    0.0000 C   0  0  0  0  0  0  0  0  0  0  0  0
    4.5981    2.9400    0.0000 C   0  0  0  0  0  0  0  0  0  0  0  0
    2.8660    1.9400    0.0000 C   0  0  0  0  0  0  0  0  0  0  0  0
    4.5981    1.9400    0.0000 C   0  0  0  0  0  0  0  0  0  0  0  0
    3.7320    0.4400    0.0000 C   0  0  0  0  0  0  0  0  0  0  0  0
    4.5981   -0.0600    0.0000 C   0  0  0  0  0  0  0  0  0  0  0  0
    5.4641   -1.5600    0.0000 C   0  0  0  0  0  0  0  0  0  0  0  0
    5.4641   -2.5600    0.0000 C   0  0  0  0  0  0  0  0  0  0  0  0
    6.3301   -3.0600    0.0000 C   0  0  0  0  0  0  0  0  0  0  0  0
    6.3301   -4.0600    0.0000 C   0  0  0  0  0  0  0  0  0  0  0  0
    2.8660    3.5600    0.0000 H   0  0  0  0  0  0  0  0  0  0  0  0
    4.1306    3.9150    0.0000 H   0  0  0  0  0  0  0  0  0  0  0  0
    3.3335    3.9150    0.0000 H   0  0  0  0  0  0  0  0  0  0  0  0
    5.2087    2.8323    0.0000 H   0  0  0  0  0  0  0  0  0  0  0  0
    4.8101    3.5226    0.0000 H   0  0  0  0  0  0  0  0  0  0  0  0
    2.2554    2.0477    0.0000 H   0  0  0  0  0  0  0  0  0  0  0  0
    2.6540    1.3574    0.0000 H   0  0  0  0  0  0  0  0  0  0  0  0
    4.8101    1.3574    0.0000 H   0  0  0  0  0  0  0  0  0  0  0  0
    5.2087    2.0477    0.0000 H   0  0  0  0  0  0  0  0  0  0  0  0
    5.2087   -0.1677    0.0000 H   0  0  0  0  0  0  0  0  0  0  0  0
    4.8101    0.5226    0.0000 H   0  0  0  0  0  0  0  0  0  0  0  0
    2.0000    4.0600    0.0000 H   0  0  0  0  0  0  0  0  0  0  0  0
    6.0747   -1.6677    0.0000 H   0  0  0  0  0  0  0  0  0  0  0  0
    5.6762   -0.9774    0.0000 H   0  0  0  0  0  0  0  0  0  0  0  0
    4.8535   -2.4523    0.0000 H   0  0  0  0  0  0  0  0  0  0  0  0
    5.2520   -3.1426    0.0000 H   0  0  0  0  0  0  0  0  0  0  0  0
    6.9407   -3.1677    0.0000 H   0  0  0  0  0  0  0  0  0  0  0  0
    6.5422   -2.4774    0.0000 H   0  0  0  0  0  0  0  0  0  0  0  0
    5.7101   -4.0600    0.0000 H   0  0  0  0  0  0  0  0  0  0  0  0
    6.3301   -4.6800    0.0000 H   0  0  0  0  0  0  0  0  0  0  0  0
    6.9501   -4.0600    0.0000 H   0  0  0  0  0  0  0  0  0  0  0  0
  1 11  1  0  0  0  0 
  1 12  1  0  0  0  0 
  5  2  1  1  0  0  0 
  2 27  1  0  0  0  0 
  3 10  2  0  0  0  0 
  4  8  1  0  0  0  0 
  4  9  1  0  0  0  0 
  4 10  1  0  0  0  0 
  5  6  1  0  0  0  0 
  5  8  1  0  0  0  0 
  5 16  1  0  0  0  0 
  6  7  1  0  0  0  0 
  6 17  1  0  0  0  0 
  6 18  1  0  0  0  0 
  7  9  1  0  0  0  0 
  7 19  1  0  0  0  0 
  7 20  1  0  0  0  0 
  8 21  1  0  0  0  0 
  8 22  1  0  0  0  0 
  9 23  1  0  0  0  0 
  9 24  1  0  0  0  0 
 10 11  1  0  0  0  0 
 11 25  1  0  0  0  0 
 11 26  1  0  0  0  0 
 12 13  1  0  0  0  0 
 12 28  1  0  0  0  0 
 12 29  1  0  0  0  0 
 13 14  1  0  0  0  0 
 13 30  1  0  0  0  0 
 13 31  1  0  0  0  0 
 14 15  1  0  0  0  0 
 14 32  1  0  0  0  0 
 14 33  1  0  0  0  0 
 15 34  1  0  0  0  0 
 15 35  1  0  0  0  0 
 15 36  1  0  0  0  0 
M  END
> <cdk:Title>
51682807

> <cdk:Remark>
null

> <PUBCHEM_COMPOUND_CID>
51682807

> <PUBCHEM_COMPOUND_CANONICALIZED>
1

> <PUBCHEM_CACTVS_COMPLEXITY>
199

> <PUBCHEM_CACTVS_HBOND_ACCEPTOR>
3

> <PUBCHEM_CACTVS_HBOND_DONOR>
1

> <PUBCHEM_CACTVS_ROTATABLE_BOND>
5

> <PUBCHEM_CACTVS_SUBSKEYS>
AAADceByMABAAAAAAAAAAAAAAAAAAAAAAAAsAAAAAAAAAAAAAAAAHgQACAAACBTlwAaCAAMAAggIAAEQEAAAAAAAABAAAAAIAAACEAIggAAEQAAEBgCwAAAwAAAAAAAAAAAAAAAAAAAAAAAAAAAAAAAAAA==

> <PUBCHEM_IUPAC_OPENEYE_NAME>
2-butylsulfanyl-1-[(3S)-3-hydroxy-1-piperidyl]ethanone

> <PUBCHEM_IUPAC_CAS_NAME>
2-(butylthio)-1-[(3S)-3-hydroxy-1-piperidinyl]ethanone

> <PUBCHEM_IUPAC_NAME>
2-butylsulfanyl-1-[(3S)-3-hydroxypiperidin-1-yl]ethanone

> <PUBCHEM_IUPAC_SYSTEMATIC_NAME>
2-butylsulfanyl-1-[(3S)-3-oxidanylpiperidin-1-yl]ethanone

> <PUBCHEM_IUPAC_TRADITIONAL_NAME>
2-(butylthio)-1-[(3S)-3-hydroxypiperidino]ethanone

> <PUBCHEM_IUPAC_INCHI>
InChI=1S/C11H21NO2S/c1-2-3-7-15-9-11(14)12-6-4-5-10(13)8-12/h10,13H,2-9H2,1H3/t10-/m0/s1

> <PUBCHEM_IUPAC_INCHIKEY>
NJYANSWIVOSOJI-JTQLQIEISA-N

> <PUBCHEM_XLOGP3_AA>
1.5

> <PUBCHEM_EXACT_MASS>
231.1293

> <PUBCHEM_MOLECULAR_FORMULA>
C11H21NO2S

> <PUBCHEM_MOLECULAR_WEIGHT>
231.35494

> <PUBCHEM_OPENEYE_CAN_SMILES>
CCCCSCC(=O)N1CCCC(C1)O

> <PUBCHEM_OPENEYE_ISO_SMILES>
CCCCSCC(=O)N1CCC[C@@H](C1)O

> <PUBCHEM_CACTVS_TPSA>
65.8

> <PUBCHEM_MONOISOTOPIC_WEIGHT>
231.1293

> <PUBCHEM_TOTAL_CHARGE>
0

> <PUBCHEM_HEAVY_ATOM_COUNT>
15

> <PUBCHEM_ATOM_DEF_STEREO_COUNT>
1

> <PUBCHEM_ATOM_UDEF_STEREO_COUNT>
0

> <PUBCHEM_BOND_DEF_STEREO_COUNT>
0

> <PUBCHEM_BOND_UDEF_STEREO_COUNT>
0

> <PUBCHEM_ISOTOPIC_ATOM_COUNT>
0

> <PUBCHEM_COMPONENT_COUNT>
1

> <PUBCHEM_CACTVS_TAUTO_COUNT>
1

> <PUBCHEM_COORDINATE_TYPE>
1

> <PUBCHEM_BONDANNOTATIONS>
5  2  5

$$$$
