
  CDK     0202151410

 20 20  0  0  0  0  0  0  0  0999 V2000
    8.7579   -2.0103    0.0000 O   0  0  0  0  0  0  0  0  0  0  0  0
    4.4487   -1.7785    0.0000 O   0  0  0  0  0  0  0  0  0  0  0  0
    3.4782   -1.2730    0.0000 O   0  0  0  0  0  0  0  0  0  0  0  0
    7.2634   -2.9809    0.0000 N   0  0  0  0  0  0  0  0  0  0  0  0
    5.3147   -0.2785    0.0000 N   0  0  0  0  0  0  0  0  0  0  0  0
    6.1808   -1.7785    0.0000 C   0  0  2  0  0  0  0  0  0  0  0  0
    6.2853   -2.7730    0.0000 C   0  0  0  0  0  0  0  0  0  0  0  0
    7.0943   -1.3717    0.0000 C   0  0  0  0  0  0  0  0  0  0  0  0
    7.7634   -2.1149    0.0000 C   0  0  0  0  0  0  0  0  0  0  0  0
    5.3147   -1.2785    0.0000 C   0  0  0  0  0  0  0  0  0  0  0  0
    7.6702   -3.8944    0.0000 C   0  0  0  0  0  0  0  0  0  0  0  0
    6.1808    0.2215    0.0000 C   0  0  0  0  0  0  0  0  0  0  0  0
    4.4487    0.2215    0.0000 C   0  0  0  0  0  0  0  0  0  0  0  0
    6.1808    1.2215    0.0000 C   0  0  0  0  0  0  0  0  0  0  0  0
    3.5827   -0.2785    0.0000 C   0  0  0  0  0  0  0  0  0  0  0  0
    7.0468    1.7215    0.0000 C   0  0  0  0  0  0  0  0  0  0  0  0
    5.3147    1.7215    0.0000 C   0  0  0  0  0  0  0  0  0  0  0  0
    2.6691    0.1283    0.0000 C   0  0  0  0  0  0  0  0  0  0  0  0
    7.0468    2.7215    0.0000 C   0  0  0  0  0  0  0  0  0  0  0  0
    5.3147    2.7215    0.0000 C   0  0  0  0  0  0  0  0  0  0  0  0
  1  9  1  0  0  0  0 
  2 10  1  0  0  0  0 
  3 15  1  0  0  0  0 
  4  7  1  0  0  0  0 
  4  9  1  0  0  0  0 
  4 11  1  0  0  0  0 
  5 10  1  0  0  0  0 
  5 12  1  0  0  0  0 
  5 13  1  0  0  0  0 
  6  7  1  0  0  0  0 
  6  8  1  0  0  0  0 
  6 10  1  1  0  0  0 
  8  9  1  0  0  0  0 
 12 14  1  0  0  0  0 
 13 15  1  0  0  0  0 
 14 16  1  0  0  0  0 
 14 17  1  0  0  0  0 
 15 18  1  0  0  0  0 
 16 19  1  0  0  0  0 
 17 20  1  0  0  0  0 
M  END
> <PUBCHEM_COMPOUND_CID>
37434090

$$$$
