
  CDK     0202151413

 23 23  0  0  0  0  0  0  0  0999 V2000
    7.9128   -0.5000    0.0000 O   0  0  0  0  0  0  0  0  0  0  0  0
    5.3147    2.0000    0.0000 O   0  0  0  0  0  0  0  0  0  0  0  0
    8.7788    1.0000    0.0000 N   0  0  0  0  0  0  0  0  0  0  0  0
    6.1808    0.5000    0.0000 N   0  0  0  0  0  0  0  0  0  0  0  0
    9.6448    0.5000    0.0000 C   0  0  0  0  0  0  0  0  0  0  0  0
    9.6448   -0.5000    0.0000 C   0  0  0  0  0  0  0  0  0  0  0  0
   10.5109    1.0000    0.0000 C   0  0  0  0  0  0  0  0  0  0  0  0
    7.9128    0.5000    0.0000 C   0  0  0  0  0  0  0  0  0  0  0  0
    7.0468    1.0000    0.0000 C   0  0  1  0  0  0  0  0  0  0  0  0
    7.0468    2.0000    0.0000 C   0  0  0  0  0  0  0  0  0  0  0  0
    6.1808   -0.5000    0.0000 C   0  0  0  0  0  0  0  0  0  0  0  0
    5.3147    1.0000    0.0000 C   0  0  0  0  0  0  0  0  0  0  0  0
    7.9128    2.5000    0.0000 C   0  0  0  0  0  0  0  0  0  0  0  0
    6.1808    2.5000    0.0000 C   0  0  0  0  0  0  0  0  0  0  0  0
    4.4487    0.5000    0.0000 C   0  0  0  0  0  0  0  0  0  0  0  0
    7.0468   -1.0000    0.0000 C   0  0  0  0  0  0  0  0  0  0  0  0
    5.3147   -1.0000    0.0000 C   0  0  0  0  0  0  0  0  0  0  0  0
    7.9128    3.5000    0.0000 C   0  0  0  0  0  0  0  0  0  0  0  0
    6.1808    3.5000    0.0000 C   0  0  0  0  0  0  0  0  0  0  0  0
    3.5827    1.0000    0.0000 C   0  0  0  0  0  0  0  0  0  0  0  0
    7.0468   -2.0000    0.0000 C   0  0  0  0  0  0  0  0  0  0  0  0
    5.3147   -2.0000    0.0000 C   0  0  0  0  0  0  0  0  0  0  0  0
    6.1808   -2.5000    0.0000 C   0  0  0  0  0  0  0  0  0  0  0  0
  1  8  1  0  0  0  0 
  2 12  1  0  0  0  0 
  3  5  1  0  0  0  0 
  3  8  1  0  0  0  0 
  9  4  1  6  0  0  0 
  4 11  1  0  0  0  0 
  4 12  1  0  0  0  0 
  5  6  1  0  0  0  0 
  5  7  1  0  0  0  0 
  8  9  1  0  0  0  0 
  9 10  1  0  0  0  0 
 10 13  1  0  0  0  0 
 10 14  1  0  0  0  0 
 11 16  1  0  0  0  0 
 11 17  1  0  0  0  0 
 12 15  1  0  0  0  0 
 13 18  1  0  0  0  0 
 14 19  1  0  0  0  0 
 15 20  1  0  0  0  0 
 16 21  1  0  0  0  0 
 17 22  1  0  0  0  0 
 21 23  1  0  0  0  0 
 22 23  1  0  0  0  0 
M  END
> <PUBCHEM_COMPOUND_CID>
25309802

$$$$
