
  CDK     1223141415

  9 10  0  0  0  0  0  0  0  0999 V2000
    4.6783   -0.9387    0.0000 N   0  0  0  0  0  0  0  0  0  0  0  0
    2.8660   -1.1340    0.0000 N   0  0  0  0  0  0  0  0  0  0  0  0
    2.0000    0.3660    0.0000 N   0  0  0  0  0  0  0  0  0  0  0  0
    4.6783    0.6708    0.0000 C   0  0  0  0  0  0  0  0  0  0  0  0
    3.7320    0.3660    0.0000 C   0  0  0  0  0  0  0  0  0  0  0  0
    5.2619   -0.1340    0.0000 C   0  0  0  0  0  0  0  0  0  0  0  0
    3.7320   -0.6340    0.0000 C   0  0  0  0  0  0  0  0  0  0  0  0
    2.8660    0.8660    0.0000 C   0  0  0  0  0  0  0  0  0  0  0  0
    2.0000   -0.6340    0.0000 C   0  0  0  0  0  0  0  0  0  0  0  0
  1  6  1  0  0  0  0 
  1  7  1  0  0  0  0 
  2  7  1  0  0  0  0 
  2  9  1  0  0  0  0 
  3  8  1  0  0  0  0 
  3  9  1  0  0  0  0 
  4  5  1  0  0  0  0 
  4  6  1  0  0  0  0 
  5  7  1  0  0  0  0 
  5  8  1  0  0  0  0 
M  ISO  1   1  32
M  END
> <PUBCHEM_COMPOUND_CID>
39146774

$$$$

  CDK     1223141415

  9 10  0  0  0  0  0  0  0  0999 V2000
    4.6783   -3.5990    0.0000 N   0  0  0  0  0  0  0  0  0  0  0  0
    5.2619   -2.7942    0.0000 N   0  0  0  0  0  0  0  0  0  0  0  0
    4.6783   -1.9895    0.0000 C   0  0  0  0  0  0  0  0  0  0  0  0
    3.7320   -2.2942    0.0000 C   0  0  0  0  0  0  0  0  0  0  0  0
    3.7320   -3.2942    0.0000 C   0  0  0  0  0  0  0  0  0  0  0  0
    2.8660   -1.7942    0.0000 C   0  0  0  0  0  0  0  0  0  0  0  0
    2.8660   -3.7942    0.0000 C   0  0  0  0  0  0  0  0  0  0  0  0
    2.0000   -2.2942    0.0000 C   0  0  0  0  0  0  0  0  0  0  0  0
    2.0000   -3.2942    0.0000 C   0  0  0  0  0  0  0  0  0  0  0  0
  1  2  1  0  0  0  0 
  1  5  1  0  0  0  0 
  2  3  1  0  0  0  0 
  3  4  1  0  0  0  0 
  4  5  1  0  0  0  0 
  4  6  1  0  0  0  0 
  5  7  1  0  0  0  0 
  6  8  1  0  0  0  0 
  7  9  1  0  0  0  0 
  8  9  1  0  0  0  0 
M  ISO  1   1  32
M  END
> <PUBCHEM_COMPOUND_CID>
57436562

$$$$
