69067313
  CDK     0104150955

 46 49  0  0  0  0  0  0  0  0999 V2000
    2.4067    4.6307    0.0000 I   0  0  0  0  0  0  0  0  0  0  0  0
    4.8198   -1.6307    0.0000 F   0  0  0  0  0  0  0  0  0  0  0  0
    3.0878   -4.6307    0.0000 O   0  0  0  0  0  0  0  0  0  0  0  0
    6.9836   -4.4967    0.0000 O   0  0  0  0  0  0  0  0  0  0  0  0
    6.9836   -2.7647    0.0000 O   0  0  0  0  0  0  0  0  0  0  0  0
    3.5878    2.9081    0.0000 O   0  0  0  0  0  0  0  0  0  0  0  0
    4.8479    1.6481    0.0000 O   0  0  0  0  0  0  0  0  0  0  0  0
    3.0878   -2.6307    0.0000 N   0  0  3  0  0  0  0  0  0  0  0  0
    5.4836   -3.6307    0.0000 N   0  0  0  0  0  0  0  0  0  0  0  0
    3.0878    1.3693    0.0000 N   0  0  0  0  0  0  0  0  0  0  0  0
    3.9538   -3.1307    0.0000 C   0  0  3  0  0  0  0  0  0  0  0  0
    3.9538   -4.1307    0.0000 C   0  0  3  0  0  0  0  0  0  0  0  0
    4.9000   -2.8260    0.0000 C   0  0  0  0  0  0  0  0  0  0  0  0
    4.9000   -4.4354    0.0000 C   0  0  0  0  0  0  0  0  0  0  0  0
    2.2218   -3.1307    0.0000 C   0  0  0  0  0  0  0  0  0  0  0  0
    2.2218   -4.1307    0.0000 C   0  0  0  0  0  0  0  0  0  0  0  0
    3.0878   -1.6307    0.0000 C   0  0  0  0  0  0  0  0  0  0  0  0
    6.4836   -3.6307    0.0000 C   0  0  0  0  0  0  0  0  0  0  0  0
    3.9538   -1.1307    0.0000 C   0  0  0  0  0  0  0  0  0  0  0  0
    2.2218   -1.1307    0.0000 C   0  0  0  0  0  0  0  0  0  0  0  0
    3.0878    0.3693    0.0000 C   0  0  0  0  0  0  0  0  0  0  0  0
    3.9538   -0.1307    0.0000 C   0  0  0  0  0  0  0  0  0  0  0  0
    2.2218   -0.1307    0.0000 C   0  0  0  0  0  0  0  0  0  0  0  0
    2.2788    1.9571    0.0000 C   0  0  0  0  0  0  0  0  0  0  0  0
    2.5878    2.9081    0.0000 C   0  0  3  0  0  0  0  0  0  0  0  0
    3.8968    1.9571    0.0000 C   0  0  0  0  0  0  0  0  0  0  0  0
    2.0000    3.7172    0.0000 C   0  0  0  0  0  0  0  0  0  0  0  0
    4.0194   -2.5142    0.0000 H   0  0  0  0  0  0  0  0  0  0  0  0
    4.0194   -4.7472    0.0000 H   0  0  0  0  0  0  0  0  0  0  0  0
    5.4374   -2.5167    0.0000 H   0  0  0  0  0  0  0  0  0  0  0  0
    4.6490   -2.2591    0.0000 H   0  0  0  0  0  0  0  0  0  0  0  0
    4.6490   -5.0023    0.0000 H   0  0  0  0  0  0  0  0  0  0  0  0
    5.4374   -4.7447    0.0000 H   0  0  0  0  0  0  0  0  0  0  0  0
    2.0097   -2.5481    0.0000 H   0  0  0  0  0  0  0  0  0  0  0  0
    1.6112   -3.2384    0.0000 H   0  0  0  0  0  0  0  0  0  0  0  0
    1.6112   -4.0230    0.0000 H   0  0  0  0  0  0  0  0  0  0  0  0
    2.0097   -4.7133    0.0000 H   0  0  0  0  0  0  0  0  0  0  0  0
    1.6848   -1.4407    0.0000 H   0  0  0  0  0  0  0  0  0  0  0  0
    4.4908    0.1793    0.0000 H   0  0  0  0  0  0  0  0  0  0  0  0
    1.6848    0.1793    0.0000 H   0  0  0  0  0  0  0  0  0  0  0  0
    1.7124    2.2093    0.0000 H   0  0  0  0  0  0  0  0  0  0  0  0
    1.9688    1.4202    0.0000 H   0  0  0  0  0  0  0  0  0  0  0  0
    2.8693    3.4606    0.0000 H   0  0  0  0  0  0  0  0  0  0  0  0
    7.6036   -4.4967    0.0000 H   0  0  0  0  0  0  0  0  0  0  0  0
    1.4860    4.0639    0.0000 H   0  0  0  0  0  0  0  0  0  0  0  0
    1.5693    3.2712    0.0000 H   0  0  0  0  0  0  0  0  0  0  0  0
  1 27  1  0  0  0  0 
  2 19  1  0  0  0  0 
  3 12  1  0  0  0  0 
  3 16  1  0  0  0  0 
  4 18  1  0  0  0  0 
  4 44  1  0  0  0  0 
  5 18  2  0  0  0  0 
  6 25  1  0  0  0  0 
  6 26  1  0  0  0  0 
  7 26  2  0  0  0  0 
  8 11  1  0  0  0  0 
  8 15  1  0  0  0  0 
  8 17  1  0  0  0  0 
  9 13  1  0  0  0  0 
  9 14  1  0  0  0  0 
  9 18  1  0  0  0  0 
 10 21  1  0  0  0  0 
 10 24  1  0  0  0  0 
 10 26  1  0  0  0  0 
 11 12  1  0  0  0  0 
 11 13  1  0  0  0  0 
 11 28  1  0  0  0  0 
 12 14  1  0  0  0  0 
 12 29  1  0  0  0  0 
 13 30  1  0  0  0  0 
 13 31  1  0  0  0  0 
 14 32  1  0  0  0  0 
 14 33  1  0  0  0  0 
 15 16  1  0  0  0  0 
 15 34  1  0  0  0  0 
 15 35  1  0  0  0  0 
 16 36  1  0  0  0  0 
 16 37  1  0  0  0  0 
 17 19  2  0  0  0  0 
 17 20  1  0  0  0  0 
 19 22  1  0  0  0  0 
 20 23  2  0  0  0  0 
 20 38  1  0  0  0  0 
 21 22  2  0  0  0  0 
 21 23  1  0  0  0  0 
 22 39  1  0  0  0  0 
 23 40  1  0  0  0  0 
 24 25  1  0  0  0  0 
 24 41  1  0  0  0  0 
 24 42  1  0  0  0  0 
 25 27  1  0  0  0  0 
 25 43  1  0  0  0  0 
 27 45  1  0  0  0  0 
 27 46  1  0  0  0  0 
M  END
> <cdk:Title>
69067313

> <cdk:Remark>
null

> <PUBCHEM_COMPOUND_CID>
69067313

> <PUBCHEM_COMPOUND_CANONICALIZED>
1

> <PUBCHEM_CACTVS_COMPLEXITY>
599

> <PUBCHEM_CACTVS_HBOND_ACCEPTOR>
7

> <PUBCHEM_CACTVS_HBOND_DONOR>
1

> <PUBCHEM_CACTVS_ROTATABLE_BOND>
3

> <PUBCHEM_CACTVS_SUBSKEYS>
AAADceB7OQAAAgAAAAAAAAAAAAAAAWLAAAA8QAAAAAAAAFgBAAAAHwAgCAAACDzjkA4wyIMABgCIACRCWACCAAAhAgAIiAAIZIgKYCLA0ZGfIAhihgDYyAcQAAAAAACAAAAAAAAAAQAAAAAAAAAAAAAAAA==

> <PUBCHEM_IUPAC_OPENEYE_NAME>
4-[2-fluoro-4-[5-(iodomethyl)-2-oxo-oxazolidin-3-yl]phenyl]-2,3,4a,5,7,7a-hexahydropyrrolo[3,4-b][1,4]oxazine-6-carboxylic acid

> <PUBCHEM_IUPAC_CAS_NAME>
4-[2-fluoro-4-[5-(iodomethyl)-2-oxo-3-oxazolidinyl]phenyl]-2,3,4a,5,7,7a-hexahydropyrrolo[3,4-b][1,4]oxazine-6-carboxylic acid

> <PUBCHEM_IUPAC_NAME>
4-[2-fluoro-4-[5-(iodomethyl)-2-oxo-1,3-oxazolidin-3-yl]phenyl]-2,3,4a,5,7,7a-hexahydropyrrolo[3,4-b][1,4]oxazine-6-carboxylic acid

> <PUBCHEM_IUPAC_SYSTEMATIC_NAME>
4-[2-fluoranyl-4-[5-(iodanylmethyl)-2-oxidanylidene-1,3-oxazolidin-3-yl]phenyl]-2,3,4a,5,7,7a-hexahydropyrrolo[3,4-b][1,4]oxazine-6-carboxylic acid

> <PUBCHEM_IUPAC_TRADITIONAL_NAME>
4-[2-fluoro-4-[5-(iodomethyl)-2-keto-oxazolidin-3-yl]phenyl]-2,3,4a,5,7,7a-hexahydropyrrolo[3,4-b][1,4]oxazine-6-carboxylic acid

> <PUBCHEM_IUPAC_INCHI>
InChI=1S/C17H19FIN3O5/c18-12-5-10(22-7-11(6-19)27-17(22)25)1-2-13(12)21-3-4-26-15-9-20(16(23)24)8-14(15)21/h1-2,5,11,14-15H,3-4,6-9H2,(H,23,24)

> <PUBCHEM_IUPAC_INCHIKEY>
VNSPKNMMKUVGDM-UHFFFAOYSA-N

> <PUBCHEM_XLOGP3_AA>
2

> <PUBCHEM_EXACT_MASS>
491.035347

> <PUBCHEM_MOLECULAR_FORMULA>
C17H19FIN3O5

> <PUBCHEM_MOLECULAR_WEIGHT>
491.252733

> <PUBCHEM_OPENEYE_CAN_SMILES>
C1COC2CN(CC2N1C3=C(C=C(C=C3)N4CC(OC4=O)CI)F)C(=O)O

> <PUBCHEM_OPENEYE_ISO_SMILES>
C1COC2CN(CC2N1C3=C(C=C(C=C3)N4CC(OC4=O)CI)F)C(=O)O

> <PUBCHEM_CACTVS_TPSA>
82.6

> <PUBCHEM_MONOISOTOPIC_WEIGHT>
491.035347

> <PUBCHEM_TOTAL_CHARGE>
0

> <PUBCHEM_HEAVY_ATOM_COUNT>
27

> <PUBCHEM_ATOM_DEF_STEREO_COUNT>
0

> <PUBCHEM_ATOM_UDEF_STEREO_COUNT>
3

> <PUBCHEM_BOND_DEF_STEREO_COUNT>
0

> <PUBCHEM_BOND_UDEF_STEREO_COUNT>
0

> <PUBCHEM_ISOTOPIC_ATOM_COUNT>
0

> <PUBCHEM_COMPONENT_COUNT>
1

> <PUBCHEM_CACTVS_TAUTO_COUNT>
1

> <PUBCHEM_COORDINATE_TYPE>
1

> <PUBCHEM_BONDANNOTATIONS>
11  13  3

$$$$
