65465722
  CDK     0104151047

 40 42  0  0  0  0  0  0  0  0999 V2000
    4.5981    1.6900    0.0000 O   0  0  0  0  0  0  0  0  0  0  0  0
    4.5981    3.6900    0.0000 N   0  0  0  0  0  0  0  0  0  0  0  0
    2.8660   -2.3100    0.0000 N   0  0  0  0  0  0  0  0  0  0  0  0
    2.8660    1.6900    0.0000 N   0  0  0  0  0  0  0  0  0  0  0  0
    3.7320    3.1900    0.0000 C   0  0  0  0  0  0  0  0  0  0  0  0
    3.2320    4.0560    0.0000 C   0  0  0  0  0  0  0  0  0  0  0  0
    2.7320    3.1900    0.0000 C   0  0  0  0  0  0  0  0  0  0  0  0
    3.7320    2.1900    0.0000 C   0  0  0  0  0  0  0  0  0  0  0  0
    2.0000   -2.8100    0.0000 C   0  0  0  0  0  0  0  0  0  0  0  0
    3.7320   -2.8100    0.0000 C   0  0  0  0  0  0  0  0  0  0  0  0
    2.0000   -3.8100    0.0000 C   0  0  0  0  0  0  0  0  0  0  0  0
    3.7320   -3.8100    0.0000 C   0  0  0  0  0  0  0  0  0  0  0  0
    2.8660   -4.3100    0.0000 C   0  0  0  0  0  0  0  0  0  0  0  0
    2.8660   -1.3100    0.0000 C   0  0  0  0  0  0  0  0  0  0  0  0
    2.8660    0.6900    0.0000 C   0  0  0  0  0  0  0  0  0  0  0  0
    2.0000   -0.8100    0.0000 C   0  0  0  0  0  0  0  0  0  0  0  0
    3.7320   -0.8100    0.0000 C   0  0  0  0  0  0  0  0  0  0  0  0
    2.0000    0.1900    0.0000 C   0  0  0  0  0  0  0  0  0  0  0  0
    3.7320    0.1900    0.0000 C   0  0  0  0  0  0  0  0  0  0  0  0
    2.1494    3.4020    0.0000 H   0  0  0  0  0  0  0  0  0  0  0  0
    2.6244    2.5794    0.0000 H   0  0  0  0  0  0  0  0  0  0  0  0
    3.7070    4.4546    0.0000 H   0  0  0  0  0  0  0  0  0  0  0  0
    2.7571    4.4546    0.0000 H   0  0  0  0  0  0  0  0  0  0  0  0
    4.5981    4.3100    0.0000 H   0  0  0  0  0  0  0  0  0  0  0  0
    5.1350    3.3800    0.0000 H   0  0  0  0  0  0  0  0  0  0  0  0
    4.3426   -2.9177    0.0000 H   0  0  0  0  0  0  0  0  0  0  0  0
    3.9441   -2.2274    0.0000 H   0  0  0  0  0  0  0  0  0  0  0  0
    1.7880   -2.2274    0.0000 H   0  0  0  0  0  0  0  0  0  0  0  0
    1.3894   -2.9177    0.0000 H   0  0  0  0  0  0  0  0  0  0  0  0
    3.9441   -4.3926    0.0000 H   0  0  0  0  0  0  0  0  0  0  0  0
    4.3426   -3.7023    0.0000 H   0  0  0  0  0  0  0  0  0  0  0  0
    1.3894   -3.7023    0.0000 H   0  0  0  0  0  0  0  0  0  0  0  0
    1.7880   -4.3926    0.0000 H   0  0  0  0  0  0  0  0  0  0  0  0
    2.4675   -4.7850    0.0000 H   0  0  0  0  0  0  0  0  0  0  0  0
    3.2646   -4.7850    0.0000 H   0  0  0  0  0  0  0  0  0  0  0  0
    2.3291    2.0000    0.0000 H   0  0  0  0  0  0  0  0  0  0  0  0
    1.4631   -1.1200    0.0000 H   0  0  0  0  0  0  0  0  0  0  0  0
    4.2690   -1.1200    0.0000 H   0  0  0  0  0  0  0  0  0  0  0  0
    1.4631    0.5000    0.0000 H   0  0  0  0  0  0  0  0  0  0  0  0
    4.2690    0.5000    0.0000 H   0  0  0  0  0  0  0  0  0  0  0  0
  1  8  2  0  0  0  0 
  2  5  1  0  0  0  0 
  2 24  1  0  0  0  0 
  2 25  1  0  0  0  0 
  3  9  1  0  0  0  0 
  3 10  1  0  0  0  0 
  3 14  1  0  0  0  0 
  4  8  1  0  0  0  0 
  4 15  1  0  0  0  0 
  4 36  1  0  0  0  0 
  5  6  1  0  0  0  0 
  5  7  1  0  0  0  0 
  5  8  1  0  0  0  0 
  6  7  1  0  0  0  0 
  6 22  1  0  0  0  0 
  6 23  1  0  0  0  0 
  7 20  1  0  0  0  0 
  7 21  1  0  0  0  0 
  9 11  1  0  0  0  0 
  9 28  1  0  0  0  0 
  9 29  1  0  0  0  0 
 10 12  1  0  0  0  0 
 10 26  1  0  0  0  0 
 10 27  1  0  0  0  0 
 11 13  1  0  0  0  0 
 11 32  1  0  0  0  0 
 11 33  1  0  0  0  0 
 12 13  1  0  0  0  0 
 12 30  1  0  0  0  0 
 12 31  1  0  0  0  0 
 13 34  1  0  0  0  0 
 13 35  1  0  0  0  0 
 14 16  2  0  0  0  0 
 14 17  1  0  0  0  0 
 15 18  2  0  0  0  0 
 15 19  1  0  0  0  0 
 16 18  1  0  0  0  0 
 16 37  1  0  0  0  0 
 17 19  2  0  0  0  0 
 17 38  1  0  0  0  0 
 18 39  1  0  0  0  0 
 19 40  1  0  0  0  0 
M  END
> <cdk:Title>
65465722

> <cdk:Remark>
null

> <PUBCHEM_COMPOUND_CID>
65465722

> <PUBCHEM_COMPOUND_CANONICALIZED>
1

> <PUBCHEM_CACTVS_COMPLEXITY>
326

> <PUBCHEM_CACTVS_HBOND_ACCEPTOR>
3

> <PUBCHEM_CACTVS_HBOND_DONOR>
2

> <PUBCHEM_CACTVS_ROTATABLE_BOND>
3

> <PUBCHEM_CACTVS_SUBSKEYS>
AAADceBzIAAAAAAAAAAAAAAAGAAAAAAAAAA8QAAAAAAAAAABAAAAHgAQAAAADIjBkAQwwIPAAACIACVSUACCAAAhAgAIiAGIZIgIYDLAkZGUIAhglADIyAcQAAAAAACAAAAAAAAAAQAAAAAAAAAAAAAAAA==

> <PUBCHEM_IUPAC_OPENEYE_NAME>
1-amino-N-[4-(1-piperidyl)phenyl]cyclopropanecarboxamide

> <PUBCHEM_IUPAC_CAS_NAME>
1-amino-N-[4-(1-piperidinyl)phenyl]-1-cyclopropanecarboxamide

> <PUBCHEM_IUPAC_NAME>
1-amino-N-(4-piperidin-1-ylphenyl)cyclopropane-1-carboxamide

> <PUBCHEM_IUPAC_SYSTEMATIC_NAME>
1-azanyl-N-(4-piperidin-1-ylphenyl)cyclopropane-1-carboxamide

> <PUBCHEM_IUPAC_TRADITIONAL_NAME>
1-amino-N-(4-piperidinophenyl)cyclopropanecarboxamide

> <PUBCHEM_IUPAC_INCHI>
InChI=1S/C15H21N3O/c16-15(8-9-15)14(19)17-12-4-6-13(7-5-12)18-10-2-1-3-11-18/h4-7H,1-3,8-11,16H2,(H,17,19)

> <PUBCHEM_IUPAC_INCHIKEY>
GZBCXOGVPFDXMM-UHFFFAOYSA-N

> <PUBCHEM_XLOGP3_AA>
1.5

> <PUBCHEM_EXACT_MASS>
259.168462

> <PUBCHEM_MOLECULAR_FORMULA>
C15H21N3O

> <PUBCHEM_MOLECULAR_WEIGHT>
259.34674

> <PUBCHEM_OPENEYE_CAN_SMILES>
C1CCN(CC1)C2=CC=C(C=C2)NC(=O)C3(CC3)N

> <PUBCHEM_OPENEYE_ISO_SMILES>
C1CCN(CC1)C2=CC=C(C=C2)NC(=O)C3(CC3)N

> <PUBCHEM_CACTVS_TPSA>
58.4

> <PUBCHEM_MONOISOTOPIC_WEIGHT>
259.168462

> <PUBCHEM_TOTAL_CHARGE>
0

> <PUBCHEM_HEAVY_ATOM_COUNT>
19

> <PUBCHEM_ATOM_DEF_STEREO_COUNT>
0

> <PUBCHEM_ATOM_UDEF_STEREO_COUNT>
0

> <PUBCHEM_BOND_DEF_STEREO_COUNT>
0

> <PUBCHEM_BOND_UDEF_STEREO_COUNT>
0

> <PUBCHEM_ISOTOPIC_ATOM_COUNT>
0

> <PUBCHEM_COMPONENT_COUNT>
1

> <PUBCHEM_CACTVS_TAUTO_COUNT>
2

> <PUBCHEM_COORDINATE_TYPE>
1

> <PUBCHEM_BONDANNOTATIONS>
14  16  8

$$$$
