
  CDK     0224151638

 16 18  0  0  0  0  0  0  0  0999 V2000
    5.1137    0.5034    0.0000 N   0  0  3  0  0  0  0  0  0  0  0  0
    7.1137   -1.2287    0.0000 N   0  0  0  0  0  0  0  0  0  0  0  0
    3.9735    1.9781    0.0000 C   0  0  3  0  0  0  0  0  0  0  0  0
    3.7147    1.0122    0.0000 C   0  0  3  0  0  0  0  0  0  0  0  0
    3.2369    2.9607    0.0000 C   0  0  0  0  0  0  0  0  0  0  0  0
    2.0000    1.3599    0.0000 C   0  0  0  0  0  0  0  0  0  0  0  0
    2.3420    0.4202    0.0000 C   0  0  0  0  0  0  0  0  0  0  0  0
    5.3725    1.4693    0.0000 C   0  0  0  0  0  0  0  0  0  0  0  0
    5.6137   -0.3627    0.0000 C   0  0  0  0  0  0  0  0  0  0  0  0
    6.6137   -0.3627    0.0000 C   0  0  0  0  0  0  0  0  0  0  0  0
    8.1137   -1.2287    0.0000 C   0  0  0  0  0  0  0  0  0  0  0  0
    8.6137   -2.0947    0.0000 C   0  0  0  0  0  0  0  0  0  0  0  0
    8.6137   -0.3627    0.0000 C   0  0  0  0  0  0  0  0  0  0  0  0
    9.6137   -2.0947    0.0000 C   0  0  0  0  0  0  0  0  0  0  0  0
    9.6137   -0.3627    0.0000 C   0  0  0  0  0  0  0  0  0  0  0  0
   10.1137   -1.2287    0.0000 C   0  0  0  0  0  0  0  0  0  0  0  0
  1  4  1  0  0  0  0 
  1  8  1  0  0  0  0 
  1  9  1  0  0  0  0 
  2 10  1  0  0  0  0 
  2 11  1  0  0  0  0 
  3  5  1  0  0  0  0 
  3  6  1  0  0  0  0 
  3  8  1  0  0  0  0 
  4  5  1  0  0  0  0 
  4  7  1  0  0  0  0 
  6  7  1  0  0  0  0 
  9 10  1  0  0  0  0 
 11 12  1  0  0  0  0 
 11 13  1  0  0  0  0 
 12 14  1  0  0  0  0 
 13 15  1  0  0  0  0 
 14 16  1  0  0  0  0 
 15 16  1  0  0  0  0 
M  END
> <PUBCHEM_COMPOUND_CID>
61561031

$$$$
