27137867
  CDK     1229141458

 52 55  0  0  0  0  0  0  0  0999 V2000
   12.1026    2.8748    0.0000 Cl  0  0  0  0  0  0  0  0  0  0  0  0
    9.1671    2.2561    0.0000 O   0  0  0  0  0  0  0  0  0  0  0  0
    6.2781   -1.0079    0.0000 N   0  0  0  0  0  0  0  0  0  0  0  0
    4.6783   -4.7246    0.0000 N   0  0  0  0  0  0  0  0  0  0  0  0
    5.9674   -1.9584    0.0000 C   0  0  0  0  0  0  0  0  0  0  0  0
    4.9889   -2.1646    0.0000 C   0  0  0  0  0  0  0  0  0  0  0  0
    4.6783   -3.1151    0.0000 C   0  0  0  0  0  0  0  0  0  0  0  0
    6.5888   -0.0573    0.0000 C   0  0  0  0  0  0  0  0  0  0  0  0
    3.7320   -3.4199    0.0000 C   0  0  0  0  0  0  0  0  0  0  0  0
    3.7320   -4.4199    0.0000 C   0  0  0  0  0  0  0  0  0  0  0  0
    5.2619   -3.9199    0.0000 C   0  0  0  0  0  0  0  0  0  0  0  0
    7.5673    0.1489    0.0000 C   0  0  0  0  0  0  0  0  0  0  0  0
    2.8660   -2.9199    0.0000 C   0  0  0  0  0  0  0  0  0  0  0  0
    2.8660   -4.9199    0.0000 C   0  0  0  0  0  0  0  0  0  0  0  0
    7.8779    1.0994    0.0000 C   0  0  0  0  0  0  0  0  0  0  0  0
    8.2351   -0.5954    0.0000 C   0  0  0  0  0  0  0  0  0  0  0  0
    2.0000   -3.4199    0.0000 C   0  0  0  0  0  0  0  0  0  0  0  0
    2.0000   -4.4199    0.0000 C   0  0  0  0  0  0  0  0  0  0  0  0
    8.8564    1.3056    0.0000 C   0  0  0  0  0  0  0  0  0  0  0  0
    9.2136   -0.3892    0.0000 C   0  0  0  0  0  0  0  0  0  0  0  0
    9.5243    0.5613    0.0000 C   0  0  0  0  0  0  0  0  0  0  0  0
   10.1456    2.4623    0.0000 C   0  0  0  0  0  0  0  0  0  0  0  0
   10.4563    3.4129    0.0000 C   0  0  0  0  0  0  0  0  0  0  0  0
   11.4348    3.6191    0.0000 C   0  0  0  0  0  0  0  0  0  0  0  0
    9.7884    4.1572    0.0000 C   0  0  0  0  0  0  0  0  0  0  0  0
   11.7454    4.5696    0.0000 C   0  0  0  0  0  0  0  0  0  0  0  0
   10.0991    5.1077    0.0000 C   0  0  0  0  0  0  0  0  0  0  0  0
   11.0776    5.3139    0.0000 C   0  0  0  0  0  0  0  0  0  0  0  0
    5.9880   -2.5780    0.0000 H   0  0  0  0  0  0  0  0  0  0  0  0
    6.5812   -2.0457    0.0000 H   0  0  0  0  0  0  0  0  0  0  0  0
    4.9684   -1.5450    0.0000 H   0  0  0  0  0  0  0  0  0  0  0  0
    4.3751   -2.0773    0.0000 H   0  0  0  0  0  0  0  0  0  0  0  0
    6.8674   -1.2005    0.0000 H   0  0  0  0  0  0  0  0  0  0  0  0
    5.6888   -0.8153    0.0000 H   0  0  0  0  0  0  0  0  0  0  0  0
    6.5682    0.5623    0.0000 H   0  0  0  0  0  0  0  0  0  0  0  0
    5.9750    0.0300    0.0000 H   0  0  0  0  0  0  0  0  0  0  0  0
    5.8819   -3.9199    0.0000 H   0  0  0  0  0  0  0  0  0  0  0  0
    4.8709   -5.3139    0.0000 H   0  0  0  0  0  0  0  0  0  0  0  0
    2.8660   -2.2999    0.0000 H   0  0  0  0  0  0  0  0  0  0  0  0
    2.8660   -5.5399    0.0000 H   0  0  0  0  0  0  0  0  0  0  0  0
    7.4639    1.5609    0.0000 H   0  0  0  0  0  0  0  0  0  0  0  0
    8.0425   -1.1848    0.0000 H   0  0  0  0  0  0  0  0  0  0  0  0
    1.4631   -3.1099    0.0000 H   0  0  0  0  0  0  0  0  0  0  0  0
    1.4631   -4.7299    0.0000 H   0  0  0  0  0  0  0  0  0  0  0  0
    9.6277   -0.8507    0.0000 H   0  0  0  0  0  0  0  0  0  0  0  0
   10.1310    0.6892    0.0000 H   0  0  0  0  0  0  0  0  0  0  0  0
   10.1662    1.8427    0.0000 H   0  0  0  0  0  0  0  0  0  0  0  0
   10.7594    2.3750    0.0000 H   0  0  0  0  0  0  0  0  0  0  0  0
    9.1817    4.0293    0.0000 H   0  0  0  0  0  0  0  0  0  0  0  0
   12.3521    4.6975    0.0000 H   0  0  0  0  0  0  0  0  0  0  0  0
    9.6850    5.5692    0.0000 H   0  0  0  0  0  0  0  0  0  0  0  0
   11.2702    5.9032    0.0000 H   0  0  0  0  0  0  0  0  0  0  0  0
  1 24  1  0  0  0  0 
  2 19  1  0  0  0  0 
  2 22  1  0  0  0  0 
  3  5  1  0  0  0  0 
  3  8  1  0  0  0  0 
  3 33  1  0  0  0  0 
  3 34  1  0  0  0  0 
  4 10  1  0  0  0  0 
  4 11  1  0  0  0  0 
  4 38  1  0  0  0  0 
  5  6  1  0  0  0  0 
  5 29  1  0  0  0  0 
  5 30  1  0  0  0  0 
  6  7  1  0  0  0  0 
  6 31  1  0  0  0  0 
  6 32  1  0  0  0  0 
  7  9  1  0  0  0  0 
  7 11  2  0  0  0  0 
  8 12  1  0  0  0  0 
  8 35  1  0  0  0  0 
  8 36  1  0  0  0  0 
  9 10  1  0  0  0  0 
  9 13  2  0  0  0  0 
 10 14  2  0  0  0  0 
 11 37  1  0  0  0  0 
 12 15  2  0  0  0  0 
 12 16  1  0  0  0  0 
 13 17  1  0  0  0  0 
 13 39  1  0  0  0  0 
 14 18  1  0  0  0  0 
 14 40  1  0  0  0  0 
 15 19  1  0  0  0  0 
 15 41  1  0  0  0  0 
 16 20  2  0  0  0  0 
 16 42  1  0  0  0  0 
 17 18  2  0  0  0  0 
 17 43  1  0  0  0  0 
 18 44  1  0  0  0  0 
 19 21  2  0  0  0  0 
 20 21  1  0  0  0  0 
 20 45  1  0  0  0  0 
 21 46  1  0  0  0  0 
 22 23  1  0  0  0  0 
 22 47  1  0  0  0  0 
 22 48  1  0  0  0  0 
 23 24  1  0  0  0  0 
 23 25  2  0  0  0  0 
 24 26  2  0  0  0  0 
 25 27  1  0  0  0  0 
 25 49  1  0  0  0  0 
 26 28  1  0  0  0  0 
 26 50  1  0  0  0  0 
 27 28  2  0  0  0  0 
 27 51  1  0  0  0  0 
 28 52  1  0  0  0  0 
M  CHG  1   3   1
M  END
> <cdk:Title>
27137867

> <cdk:Remark>
null

> <PUBCHEM_COMPOUND_CID>
27137867

> <PUBCHEM_COMPOUND_CANONICALIZED>
1

> <PUBCHEM_CACTVS_COMPLEXITY>
462

> <PUBCHEM_CACTVS_HBOND_ACCEPTOR>
1

> <PUBCHEM_CACTVS_HBOND_DONOR>
2

> <PUBCHEM_CACTVS_ROTATABLE_BOND>
8

> <PUBCHEM_CACTVS_SUBSKEYS>
AAADceB7IAAEAAAAAAAAAAAAAAAAAWAAAAAwYMAAAAAAAFgB9AAAHgIQAAAADA7hniY8xvLJlACgAzRnRACCiCAxJyAI2aA+bpgMJuLFs5uGOCjk0BHI6AewwPAOgAABAAADAAAAAAIAAAYAAAAAAAAAAA==

> <PUBCHEM_IUPAC_OPENEYE_NAME>
[3-[(2-chlorophenyl)methoxy]phenyl]methyl-[2-(1H-indol-3-yl)ethyl]ammonium

> <PUBCHEM_IUPAC_CAS_NAME>
[3-[(2-chlorophenyl)methoxy]phenyl]methyl-[2-(1H-indol-3-yl)ethyl]ammonium

> <PUBCHEM_IUPAC_NAME>
[3-[(2-chlorophenyl)methoxy]phenyl]methyl-[2-(1H-indol-3-yl)ethyl]azanium

> <PUBCHEM_IUPAC_SYSTEMATIC_NAME>
[3-[(2-chlorophenyl)methoxy]phenyl]methyl-[2-(1H-indol-3-yl)ethyl]azanium

> <PUBCHEM_IUPAC_TRADITIONAL_NAME>
[3-(2-chlorobenzyl)oxybenzyl]-[2-(1H-indol-3-yl)ethyl]ammonium

> <PUBCHEM_IUPAC_INCHI>
InChI=1S/C24H23ClN2O/c25-23-10-3-1-7-20(23)17-28-21-8-5-6-18(14-21)15-26-13-12-19-16-27-24-11-4-2-9-22(19)24/h1-11,14,16,26-27H,12-13,15,17H2/p+1

> <PUBCHEM_IUPAC_INCHIKEY>
VDQFWGQRKTWDDS-UHFFFAOYSA-O

> <PUBCHEM_XLOGP3_AA>
5.5

> <PUBCHEM_EXACT_MASS>
391.157716

> <PUBCHEM_MOLECULAR_FORMULA>
C24H24ClN2O+

> <PUBCHEM_MOLECULAR_WEIGHT>
391.91316

> <PUBCHEM_OPENEYE_CAN_SMILES>
C1=CC=C(C(=C1)COC2=CC=CC(=C2)C[NH2+]CCC3=CNC4=CC=CC=C43)Cl

> <PUBCHEM_OPENEYE_ISO_SMILES>
C1=CC=C(C(=C1)COC2=CC=CC(=C2)C[NH2+]CCC3=CNC4=CC=CC=C43)Cl

> <PUBCHEM_CACTVS_TPSA>
41.6

> <PUBCHEM_MONOISOTOPIC_WEIGHT>
391.157716

> <PUBCHEM_TOTAL_CHARGE>
1

> <PUBCHEM_HEAVY_ATOM_COUNT>
28

> <PUBCHEM_ATOM_DEF_STEREO_COUNT>
0

> <PUBCHEM_ATOM_UDEF_STEREO_COUNT>
0

> <PUBCHEM_BOND_DEF_STEREO_COUNT>
0

> <PUBCHEM_BOND_UDEF_STEREO_COUNT>
0

> <PUBCHEM_ISOTOPIC_ATOM_COUNT>
0

> <PUBCHEM_COMPONENT_COUNT>
1

> <PUBCHEM_CACTVS_TAUTO_COUNT>
1

> <PUBCHEM_COORDINATE_TYPE>
1

> <PUBCHEM_BONDANNOTATIONS>
10  14  8

$$$$
