
  CDK     1223141415

 21 24  0  0  0  0  0  0  0  0999 V2000
   12.1521   -1.9173    0.0000 N   0  0  0  0  0  0  0  0  0  0  0  0
    6.1591   -0.9490    0.0000 N   0  0  0  0  0  0  0  0  0  0  0  0
    6.8283   -0.2059    0.0000 C   0  0  3  0  0  0  0  0  0  0  0  0
    7.7418   -0.6126    0.0000 C   0  0  0  0  0  0  0  0  0  0  0  0
    6.6204    0.7723    0.0000 C   0  0  0  0  0  0  0  0  0  0  0  0
    6.6591   -1.8150    0.0000 C   0  0  0  0  0  0  0  0  0  0  0  0
    7.6373   -1.6071    0.0000 C   0  0  0  0  0  0  0  0  0  0  0  0
    8.6078   -0.1126    0.0000 C   0  0  0  0  0  0  0  0  0  0  0  0
   12.1521   -0.3079    0.0000 C   0  0  0  0  0  0  0  0  0  0  0  0
   11.2059   -0.6126    0.0000 C   0  0  0  0  0  0  0  0  0  0  0  0
    9.4739   -0.6126    0.0000 C   0  0  0  0  0  0  0  0  0  0  0  0
   12.7357   -1.1126    0.0000 C   0  0  3  0  0  0  0  0  0  0  0  0
   11.2059   -1.6126    0.0000 C   0  0  0  0  0  0  0  0  0  0  0  0
   10.3399   -0.1126    0.0000 C   0  0  0  0  0  0  0  0  0  0  0  0
    5.6693    1.0813    0.0000 C   0  0  0  0  0  0  0  0  0  0  0  0
    7.3635    1.4414    0.0000 C   0  0  0  0  0  0  0  0  0  0  0  0
    9.4739   -1.6126    0.0000 C   0  0  0  0  0  0  0  0  0  0  0  0
   10.3399   -2.1126    0.0000 C   0  0  0  0  0  0  0  0  0  0  0  0
    5.4614    2.0594    0.0000 C   0  0  0  0  0  0  0  0  0  0  0  0
    7.1556    2.4196    0.0000 C   0  0  0  0  0  0  0  0  0  0  0  0
    6.2045    2.7286    0.0000 C   0  0  0  0  0  0  0  0  0  0  0  0
  1 12  1  0  0  0  0 
  1 13  1  0  0  0  0 
  2  3  1  0  0  0  0 
  2  6  1  0  0  0  0 
  3  4  1  0  0  0  0 
  3  5  1  0  0  0  0 
  4  7  1  0  0  0  0 
  4  8  1  0  0  0  0 
  5 15  1  0  0  0  0 
  5 16  1  0  0  0  0 
  6  7  1  0  0  0  0 
  8 11  1  0  0  0  0 
  9 10  1  0  0  0  0 
  9 12  1  0  0  0  0 
 10 13  1  0  0  0  0 
 10 14  1  0  0  0  0 
 11 14  1  0  0  0  0 
 11 17  1  0  0  0  0 
 13 18  1  0  0  0  0 
 15 19  1  0  0  0  0 
 16 20  1  0  0  0  0 
 17 18  1  0  0  0  0 
 19 21  1  0  0  0  0 
 20 21  1  0  0  0  0 
M  ISO  1   1  16
M  END
> <PUBCHEM_COMPOUND_CID>
6133607

$$$$

  CDK     1223141415

 21 24  0  0  0  0  0  0  0  0999 V2000
    5.8198   -1.1081    0.0000 N   0  0  0  0  0  0  0  0  0  0  0  0
    3.7320   -1.1651    0.0000 N   0  0  0  0  0  0  0  0  0  0  0  0
    6.7709    0.2010    0.0000 N   0  0  0  0  0  0  0  0  0  0  0  0
    7.7171    0.5057    0.0000 N   0  0  0  0  0  0  0  0  0  0  0  0
    7.7171   -1.1038    0.0000 N   0  0  0  0  0  0  0  0  0  0  0  0
    4.5981   -1.6651    0.0000 C   0  0  0  0  0  0  0  0  0  0  0  0
    2.8660   -1.6651    0.0000 C   0  0  0  0  0  0  0  0  0  0  0  0
    4.5981   -2.6651    0.0000 C   0  0  2  0  0  0  0  0  0  0  0  0
    2.8660   -2.6651    0.0000 C   0  0  2  0  0  0  0  0  0  0  0  0
    3.7320   -3.1651    0.0000 C   0  0  0  0  0  0  0  0  0  0  0  0
    4.2320   -0.2990    0.0000 C   0  0  2  0  0  0  0  0  0  0  0  0
    5.2320   -0.2990    0.0000 C   0  0  0  0  0  0  0  0  0  0  0  0
    3.7320    0.5670    0.0000 C   0  0  0  0  0  0  0  0  0  0  0  0
    5.8198    0.5100    0.0000 C   0  0  0  0  0  0  0  0  0  0  0  0
    4.2320    1.4330    0.0000 C   0  0  0  0  0  0  0  0  0  0  0  0
    2.7320    0.5670    0.0000 C   0  0  0  0  0  0  0  0  0  0  0  0
    6.7709   -0.7990    0.0000 C   0  0  0  0  0  0  0  0  0  0  0  0
    3.7320    2.2990    0.0000 C   0  0  0  0  0  0  0  0  0  0  0  0
    2.2320    1.4330    0.0000 C   0  0  0  0  0  0  0  0  0  0  0  0
    2.7320    2.2990    0.0000 C   0  0  0  0  0  0  0  0  0  0  0  0
    8.3007   -0.2990    0.0000 C   0  0  0  0  0  0  0  0  0  0  0  0
  1 12  1  0  0  0  0 
  1 17  1  0  0  0  0 
  2  6  1  0  0  0  0 
  2  7  1  0  0  0  0 
 11  2  1  1  0  0  0 
  3  4  1  0  0  0  0 
  3 14  1  0  0  0  0 
  3 17  1  0  0  0  0 
  4 21  1  0  0  0  0 
  5 17  1  0  0  0  0 
  5 21  1  0  0  0  0 
  6  8  1  0  0  0  0 
  7  9  1  0  0  0  0 
  8 10  1  0  0  0  0 
  9 10  1  0  0  0  0 
 11 12  1  0  0  0  0 
 11 13  1  0  0  0  0 
 12 14  1  0  0  0  0 
 13 15  1  0  0  0  0 
 13 16  1  0  0  0  0 
 15 18  1  0  0  0  0 
 16 19  1  0  0  0  0 
 18 20  1  0  0  0  0 
 19 20  1  0  0  0  0 
M  CHG  1   2   1
M  ISO  1   1  32
M  END
> <PUBCHEM_COMPOUND_CID>
7293924

$$$$

  CDK     1223141415

 21 24  0  0  0  0  0  0  0  0999 V2000
    8.5206    2.7128    0.0000 N   0  0  0  0  0  0  0  0  0  0  0  0
    7.2566    0.4549    0.0000 N   0  0  0  0  0  0  0  0  0  0  0  0
    4.6783   -1.8586    0.0000 N   0  0  0  0  0  0  0  0  0  0  0  0
    6.2781    0.2487    0.0000 N   0  0  0  0  0  0  0  0  0  0  0  0
    7.5673    1.4054    0.0000 C   0  0  2  0  0  0  0  0  0  0  0  0
    8.5189    1.7128    0.0000 C   0  0  0  0  0  0  0  0  0  0  0  0
    6.9809    2.2154    0.0000 C   0  0  0  0  0  0  0  0  0  0  0  0
    7.5701    3.0234    0.0000 C   0  0  0  0  0  0  0  0  0  0  0  0
    5.2619   -2.6633    0.0000 C   0  0  1  0  0  0  0  0  0  0  0  0
    4.6783   -3.4680    0.0000 C   0  0  0  0  0  0  0  0  0  0  0  0
    7.9244   -0.2894    0.0000 C   0  0  0  0  0  0  0  0  0  0  0  0
    5.9674   -0.7018    0.0000 C   0  0  0  0  0  0  0  0  0  0  0  0
    7.6138   -1.2399    0.0000 C   0  0  0  0  0  0  0  0  0  0  0  0
    6.6353   -1.4461    0.0000 C   0  0  0  0  0  0  0  0  0  0  0  0
    3.7320   -2.1633    0.0000 C   0  0  0  0  0  0  0  0  0  0  0  0
    3.7320   -3.1633    0.0000 C   0  0  0  0  0  0  0  0  0  0  0  0
    4.9889   -0.9081    0.0000 C   0  0  0  0  0  0  0  0  0  0  0  0
    2.8660   -1.6633    0.0000 C   0  0  0  0  0  0  0  0  0  0  0  0
    2.8660   -3.6633    0.0000 C   0  0  0  0  0  0  0  0  0  0  0  0
    2.0000   -2.1633    0.0000 C   0  0  0  0  0  0  0  0  0  0  0  0
    2.0000   -3.1633    0.0000 C   0  0  0  0  0  0  0  0  0  0  0  0
  1  6  1  0  0  0  0 
  1  8  1  0  0  0  0 
  2  4  1  0  0  0  0 
  5  2  1  1  0  0  0 
  2 11  1  0  0  0  0 
  3  9  1  0  0  0  0 
  3 15  1  0  0  0  0 
  3 17  1  0  0  0  0 
  4 12  1  0  0  0  0 
  5  6  1  0  0  0  0 
  5  7  1  0  0  0  0 
  7  8  1  0  0  0  0 
  9 10  1  0  0  0  0 
 10 16  1  0  0  0  0 
 11 13  1  0  0  0  0 
 12 14  1  0  0  0  0 
 12 17  1  0  0  0  0 
 13 14  1  0  0  0  0 
 15 16  1  0  0  0  0 
 15 18  1  0  0  0  0 
 16 19  1  0  0  0  0 
 18 20  1  0  0  0  0 
 19 21  1  0  0  0  0 
 20 21  1  0  0  0  0 
M  ISO  1   1  32
M  END
> <PUBCHEM_COMPOUND_CID>
29359790

$$$$
