
  CDK     0224152114

 21 24  0  0  0  0  0  0  0  0999 V2000
   12.1521   -1.9173    0.0000 O   0  0  0  0  0  0  0  0  0  0  0  0
    6.1591   -0.9490    0.0000 N   0  0  0  0  0  0  0  0  0  0  0  0
    6.8283   -0.2059    0.0000 C   0  0  3  0  0  0  0  0  0  0  0  0
    7.7418   -0.6126    0.0000 C   0  0  0  0  0  0  0  0  0  0  0  0
    6.6204    0.7723    0.0000 C   0  0  0  0  0  0  0  0  0  0  0  0
    6.6591   -1.8150    0.0000 C   0  0  0  0  0  0  0  0  0  0  0  0
    7.6373   -1.6071    0.0000 C   0  0  0  0  0  0  0  0  0  0  0  0
    8.6078   -0.1126    0.0000 C   0  0  0  0  0  0  0  0  0  0  0  0
   12.1521   -0.3079    0.0000 C   0  0  0  0  0  0  0  0  0  0  0  0
   11.2059   -0.6126    0.0000 C   0  0  0  0  0  0  0  0  0  0  0  0
    9.4739   -0.6126    0.0000 C   0  0  0  0  0  0  0  0  0  0  0  0
   12.7357   -1.1126    0.0000 C   0  0  3  0  0  0  0  0  0  0  0  0
   11.2059   -1.6126    0.0000 C   0  0  0  0  0  0  0  0  0  0  0  0
   10.3399   -0.1126    0.0000 C   0  0  0  0  0  0  0  0  0  0  0  0
    5.6693    1.0813    0.0000 C   0  0  0  0  0  0  0  0  0  0  0  0
    7.3635    1.4414    0.0000 C   0  0  0  0  0  0  0  0  0  0  0  0
    9.4739   -1.6126    0.0000 C   0  0  0  0  0  0  0  0  0  0  0  0
   10.3399   -2.1126    0.0000 C   0  0  0  0  0  0  0  0  0  0  0  0
    5.4614    2.0594    0.0000 C   0  0  0  0  0  0  0  0  0  0  0  0
    7.1556    2.4196    0.0000 C   0  0  0  0  0  0  0  0  0  0  0  0
    6.2045    2.7286    0.0000 C   0  0  0  0  0  0  0  0  0  0  0  0
  1 12  1  0  0  0  0 
  1 13  1  0  0  0  0 
  2  3  1  0  0  0  0 
  2  6  1  0  0  0  0 
  3  4  1  0  0  0  0 
  3  5  1  0  0  0  0 
  4  7  1  0  0  0  0 
  4  8  1  0  0  0  0 
  5 15  1  0  0  0  0 
  5 16  1  0  0  0  0 
  6  7  1  0  0  0  0 
  8 11  1  0  0  0  0 
  9 10  1  0  0  0  0 
  9 12  1  0  0  0  0 
 10 13  1  0  0  0  0 
 10 14  1  0  0  0  0 
 11 14  1  0  0  0  0 
 11 17  1  0  0  0  0 
 13 18  1  0  0  0  0 
 15 19  1  0  0  0  0 
 16 20  1  0  0  0  0 
 17 18  1  0  0  0  0 
 19 21  1  0  0  0  0 
 20 21  1  0  0  0  0 
M  END
> <PUBCHEM_COMPOUND_CID>
6133607

$$$$

  CDK     0224152114

 21 24  0  0  0  0  0  0  0  0999 V2000
    6.0782   -3.5091    0.0000 O   0  0  0  0  0  0  0  0  0  0  0  0
    8.4741   -2.5091    0.0000 N   0  0  0  0  0  0  0  0  0  0  0  0
    7.8905   -3.3138    0.0000 N   0  0  0  0  0  0  0  0  0  0  0  0
    6.9443   -2.0091    0.0000 C   0  0  3  0  0  0  0  0  0  0  0  0
    7.8905   -1.7044    0.0000 C   0  0  3  0  0  0  0  0  0  0  0  0
    6.9443   -3.0091    0.0000 C   0  0  3  0  0  0  0  0  0  0  0  0
    6.0782   -1.5091    0.0000 C   0  0  3  0  0  0  0  0  0  0  0  0
    5.2122   -2.0091    0.0000 C   0  0  0  0  0  0  0  0  0  0  0  0
    8.5075   -0.9174    0.0000 C   0  0  0  0  0  0  0  0  0  0  0  0
    5.7362   -0.5694    0.0000 C   0  0  0  0  0  0  0  0  0  0  0  0
    5.2122   -3.0091    0.0000 C   0  0  0  0  0  0  0  0  0  0  0  0
    8.1345    0.0104    0.0000 C   0  0  0  0  0  0  0  0  0  0  0  0
    9.4975   -1.0583    0.0000 C   0  0  0  0  0  0  0  0  0  0  0  0
    4.7514   -0.3957    0.0000 C   0  0  0  0  0  0  0  0  0  0  0  0
    6.3790    0.1967    0.0000 C   0  0  0  0  0  0  0  0  0  0  0  0
    8.7515    0.7974    0.0000 C   0  0  0  0  0  0  0  0  0  0  0  0
   10.1146   -0.2713    0.0000 C   0  0  0  0  0  0  0  0  0  0  0  0
    4.4094    0.5440    0.0000 C   0  0  0  0  0  0  0  0  0  0  0  0
    6.0370    1.1364    0.0000 C   0  0  0  0  0  0  0  0  0  0  0  0
    9.7416    0.6565    0.0000 C   0  0  0  0  0  0  0  0  0  0  0  0
    5.0522    1.3100    0.0000 C   0  0  0  0  0  0  0  0  0  0  0  0
  1  6  1  0  0  0  0 
  1 11  1  0  0  0  0 
  2  3  1  0  0  0  0 
  2  5  1  0  0  0  0 
  3  6  1  0  0  0  0 
  4  5  1  0  0  0  0 
  4  6  1  0  0  0  0 
  4  7  1  0  0  0  0 
  5  9  1  0  0  0  0 
  7  8  1  0  0  0  0 
  7 10  1  0  0  0  0 
  8 11  1  0  0  0  0 
  9 12  1  0  0  0  0 
  9 13  1  0  0  0  0 
 10 14  1  0  0  0  0 
 10 15  1  0  0  0  0 
 12 16  1  0  0  0  0 
 13 17  1  0  0  0  0 
 14 18  1  0  0  0  0 
 15 19  1  0  0  0  0 
 16 20  1  0  0  0  0 
 17 20  1  0  0  0  0 
 18 21  1  0  0  0  0 
 19 21  1  0  0  0  0 
M  END
> <PUBCHEM_COMPOUND_CID>
53460846

$$$$

  CDK     0224152114

 21 24  0  0  0  0  0  0  0  0999 V2000
    7.9643   -1.9744    0.0000 N   0  0  0  0  0  0  0  0  0  0  0  0
    3.7320    0.4743    0.0000 N   0  0  0  0  0  0  0  0  0  0  0  0
    4.6783   -0.8304    0.0000 N   0  0  0  0  0  0  0  0  0  0  0  0
    7.7564   -0.9963    0.0000 C   0  0  3  0  0  0  0  0  0  0  0  0
    6.7619   -0.8917    0.0000 C   0  0  0  0  0  0  0  0  0  0  0  0
    8.4255   -0.2531    0.0000 C   0  0  0  0  0  0  0  0  0  0  0  0
    7.0983   -2.4744    0.0000 C   0  0  0  0  0  0  0  0  0  0  0  0
    6.3551   -1.8053    0.0000 C   0  0  0  0  0  0  0  0  0  0  0  0
    6.2619   -0.0257    0.0000 C   0  0  0  0  0  0  0  0  0  0  0  0
    9.4037   -0.4610    0.0000 C   0  0  0  0  0  0  0  0  0  0  0  0
    5.2619   -0.0257    0.0000 C   0  0  0  0  0  0  0  0  0  0  0  0
    8.1165    0.6979    0.0000 C   0  0  0  0  0  0  0  0  0  0  0  0
    4.6783    0.7790    0.0000 C   0  0  0  0  0  0  0  0  0  0  0  0
   10.0728    0.2821    0.0000 C   0  0  0  0  0  0  0  0  0  0  0  0
    8.7856    1.4411    0.0000 C   0  0  0  0  0  0  0  0  0  0  0  0
    3.7320   -0.5257    0.0000 C   0  0  0  0  0  0  0  0  0  0  0  0
    9.7638    1.2332    0.0000 C   0  0  0  0  0  0  0  0  0  0  0  0
    2.8660   -1.0257    0.0000 C   0  0  0  0  0  0  0  0  0  0  0  0
    2.8660    0.9743    0.0000 C   0  0  0  0  0  0  0  0  0  0  0  0
    2.0000   -0.5257    0.0000 C   0  0  0  0  0  0  0  0  0  0  0  0
    2.0000    0.4743    0.0000 C   0  0  0  0  0  0  0  0  0  0  0  0
  1  4  1  0  0  0  0 
  1  7  1  0  0  0  0 
  2 13  1  0  0  0  0 
  2 16  1  0  0  0  0 
  2 19  1  0  0  0  0 
  3 11  1  0  0  0  0 
  3 16  1  0  0  0  0 
  4  5  1  0  0  0  0 
  4  6  1  0  0  0  0 
  5  8  1  0  0  0  0 
  5  9  1  3  0  0  0 
  6 10  1  0  0  0  0 
  6 12  1  0  0  0  0 
  7  8  1  0  0  0  0 
  9 11  1  0  0  0  0 
 10 14  1  0  0  0  0 
 11 13  1  0  0  0  0 
 12 15  1  0  0  0  0 
 14 17  1  0  0  0  0 
 15 17  1  0  0  0  0 
 16 18  1  0  0  0  0 
 18 20  1  0  0  0  0 
 19 21  1  0  0  0  0 
 20 21  1  0  0  0  0 
M  END
> <PUBCHEM_COMPOUND_CID>
4703871

$$$$
