
  CDK     0202151410

 16 16  0  0  0  0  0  0  0  0999 V2000
    6.1730   -0.0551    0.0000 O   0  0  0  0  0  0  0  0  0  0  0  0
    4.4409   -1.0551    0.0000 N   0  0  0  0  0  0  0  0  0  0  0  0
    4.4409    2.9449    0.0000 N   0  0  0  0  0  0  0  0  0  0  0  0
    4.4409   -0.0551    0.0000 N   0  0  0  0  0  0  0  0  0  0  0  0
    4.4409    1.9449    0.0000 N   0  0  0  0  0  0  0  0  0  0  0  0
    2.6671   -1.1500    0.0000 C   0  0  0  0  0  0  0  0  0  0  0  0
    3.4718   -2.5438    0.0000 C   0  0  0  0  0  0  0  0  0  0  0  0
    3.5749   -1.5551    0.0000 C   0  0  0  0  0  0  0  0  0  0  0  0
    6.1730    1.9449    0.0000 C   0  0  0  0  0  0  0  0  0  0  0  0
    6.1730    2.9449    0.0000 C   0  0  0  0  0  0  0  0  0  0  0  0
    5.3069    1.4449    0.0000 C   0  0  0  0  0  0  0  0  0  0  0  0
    5.3069    3.4449    0.0000 C   0  0  0  0  0  0  0  0  0  0  0  0
    3.5749    3.4449    0.0000 C   0  0  0  0  0  0  0  0  0  0  0  0
    5.3069    0.4449    0.0000 C   0  0  0  0  0  0  0  0  0  0  0  0
    7.0669    1.4102    0.0000 C   0  0  0  0  0  0  0  0  0  0  0  0
    7.0669    3.4795    0.0000 C   0  0  0  0  0  0  0  0  0  0  0  0
  1 14  1  0  0  0  0 
  2  4  1  0  0  0  0 
  2  8  1  0  0  0  0 
  3  5  1  0  0  0  0 
  3 12  1  0  0  0  0 
  3 13  1  0  0  0  0 
  4 14  1  0  0  0  0 
  5 11  1  0  0  0  0 
  6  8  1  0  0  0  0 
  7  8  1  0  0  0  0 
  9 10  1  0  0  0  0 
  9 11  1  0  0  0  0 
  9 15  1  0  0  0  0 
 10 12  1  0  0  0  0 
 10 16  1  0  0  0  0 
 11 14  1  0  0  0  0 
M  END
> <PUBCHEM_COMPOUND_CID>
9771905

$$$$

  CDK     0202151410

 16 15  0  0  0  0  0  0  0  0999 V2000
    6.3821   -1.2846    0.0000 O   0  0  0  0  0  0  0  0  0  0  0  0
    4.6501   -0.2846    0.0000 N   0  0  3  0  0  0  0  0  0  0  0  0
    7.2482    0.2154    0.0000 N   0  0  0  0  0  0  0  0  0  0  0  0
    4.6501   -1.2846    0.0000 C   0  0  0  0  0  0  0  0  0  0  0  0
    5.5161    0.2154    0.0000 C   0  0  0  0  0  0  0  0  0  0  0  0
    8.1142   -0.2846    0.0000 C   0  0  1  0  0  0  0  0  0  0  0  0
    3.7841    0.2154    0.0000 C   0  0  0  0  0  0  0  0  0  0  0  0
    8.9802    0.2154    0.0000 C   0  0  0  0  0  0  0  0  0  0  0  0
    2.9180   -0.2846    0.0000 C   0  0  0  0  0  0  0  0  0  0  0  0
    6.3821   -0.2846    0.0000 C   0  0  0  0  0  0  0  0  0  0  0  0
    8.1142   -1.2846    0.0000 C   0  0  0  0  0  0  0  0  0  0  0  0
    9.8462   -0.2846    0.0000 C   0  0  0  0  0  0  0  0  0  0  0  0
    3.8001    1.2569    0.0000 C   0  0  0  0  0  0  0  0  0  0  0  0
   10.7123    0.2154    0.0000 C   0  0  0  0  0  0  0  0  0  0  0  0
    8.9802    1.2154    0.0000 C   0  0  0  0  0  0  0  0  0  0  0  0
    9.8462    1.7154    0.0000 C   0  0  0  0  0  0  0  0  0  0  0  0
  1 10  1  0  0  0  0 
  2  4  1  0  0  0  0 
  2  5  1  0  0  0  0 
  2  7  1  0  0  0  0 
  6  3  1  1  0  0  0 
  3 10  1  0  0  0  0 
  5 10  1  0  0  0  0 
  6  8  1  0  0  0  0 
  6 11  1  0  0  0  0 
  7  9  1  0  0  0  0 
  7 13  1  0  0  0  0 
  8 12  1  0  0  0  0 
  8 15  1  0  0  0  0 
 12 14  1  0  0  0  0 
 15 16  1  0  0  0  0 
M  END
> <PUBCHEM_COMPOUND_CID>
52580118

$$$$

  CDK     0202151410

 16 16  0  0  0  0  0  0  0  0999 V2000
    6.1730   -0.0551    0.0000 O   0  0  0  0  0  0  0  0  0  0  0  0
    4.4409   -1.0551    0.0000 N   0  0  0  0  0  0  0  0  0  0  0  0
    4.4409    2.9449    0.0000 N   0  0  0  0  0  0  0  0  0  0  0  0
    4.4409   -0.0551    0.0000 N   0  0  0  0  0  0  0  0  0  0  0  0
    4.4409    1.9449    0.0000 N   0  0  0  0  0  0  0  0  0  0  0  0
    2.6671   -1.1500    0.0000 C   0  0  0  0  0  0  0  0  0  0  0  0
    3.4718   -2.5438    0.0000 C   0  0  0  0  0  0  0  0  0  0  0  0
    3.5749   -1.5551    0.0000 C   0  0  0  0  0  0  0  0  0  0  0  0
    6.1730    1.9449    0.0000 C   0  0  0  0  0  0  0  0  0  0  0  0
    6.1730    2.9449    0.0000 C   0  0  0  0  0  0  0  0  0  0  0  0
    5.3069    1.4449    0.0000 C   0  0  0  0  0  0  0  0  0  0  0  0
    5.3069    3.4449    0.0000 C   0  0  0  0  0  0  0  0  0  0  0  0
    3.5749    3.4449    0.0000 C   0  0  0  0  0  0  0  0  0  0  0  0
    5.3069    0.4449    0.0000 C   0  0  0  0  0  0  0  0  0  0  0  0
    7.0669    1.4102    0.0000 C   0  0  0  0  0  0  0  0  0  0  0  0
    7.0669    3.4795    0.0000 C   0  0  0  0  0  0  0  0  0  0  0  0
  1 14  1  0  0  0  0 
  2  4  1  0  0  0  0 
  2  8  1  0  0  0  0 
  3  5  1  0  0  0  0 
  3 12  1  0  0  0  0 
  3 13  1  0  0  0  0 
  4 14  1  0  0  0  0 
  5 11  1  0  0  0  0 
  6  8  1  0  0  0  0 
  7  8  1  0  0  0  0 
  9 10  1  0  0  0  0 
  9 11  1  0  0  0  0 
  9 15  1  0  0  0  0 
 10 12  1  0  0  0  0 
 10 16  1  0  0  0  0 
 11 14  1  0  0  0  0 
M  END
> <PUBCHEM_COMPOUND_CID>
9771905

$$$$
