
  CDK     0202151410

 18 18  0  0  0  0  0  0  0  0999 V2000
    8.9282   -0.6550    0.0000 O   0  0  0  0  0  0  0  0  0  0  0  0
    6.3301   -1.1550    0.0000 O   0  0  0  0  0  0  0  0  0  0  0  0
   10.6603    0.3450    0.0000 C   0  0  0  0  0  0  0  0  0  0  0  0
   10.6603   -0.6550    0.0000 C   0  0  0  0  0  0  0  0  0  0  0  0
    9.7942   -1.1550    0.0000 C   0  0  0  0  0  0  0  0  0  0  0  0
   11.5263   -1.1550    0.0000 C   0  0  0  0  0  0  0  0  0  0  0  0
    9.7942   -2.1550    0.0000 C   0  0  0  0  0  0  0  0  0  0  0  0
   10.6603   -2.6550    0.0000 C   0  0  0  0  0  0  0  0  0  0  0  0
    8.0622   -1.1550    0.0000 C   0  0  0  0  0  0  0  0  0  0  0  0
    7.1962   -0.6550    0.0000 C   0  0  0  0  0  0  0  0  0  0  0  0
    5.4641    0.3450    0.0000 C   0  0  0  0  0  0  0  0  0  0  0  0
    5.4641   -0.6550    0.0000 C   0  0  0  0  0  0  0  0  0  0  0  0
    6.3301    0.8450    0.0000 C   0  0  0  0  0  0  0  0  0  0  0  0
    6.3301    1.8450    0.0000 C   0  0  0  0  0  0  0  0  0  0  0  0
    4.5981    0.8450    0.0000 C   0  0  0  0  0  0  0  0  0  0  0  0
    4.5981   -1.1550    0.0000 C   0  0  0  0  0  0  0  0  0  0  0  0
    3.7320   -0.6550    0.0000 C   0  0  0  0  0  0  0  0  0  0  0  0
    3.7320    0.3450    0.0000 C   0  0  0  0  0  0  0  0  0  0  0  0
  1  5  1  0  0  0  0 
  1  9  1  0  0  0  0 
  2 10  1  0  0  0  0 
  2 12  1  0  0  0  0 
  3  4  1  0  0  0  0 
  4  5  1  0  0  0  0 
  4  6  1  0  0  0  0 
  5  7  1  0  0  0  0 
  7  8  1  0  0  0  0 
  9 10  1  0  0  0  0 
 11 12  1  0  0  0  0 
 11 13  1  0  0  0  0 
 11 15  1  0  0  0  0 
 12 16  1  0  0  0  0 
 13 14  1  0  0  0  0 
 15 18  1  0  0  0  0 
 16 17  1  0  0  0  0 
 17 18  1  0  0  0  0 
M  END
> <PUBCHEM_COMPOUND_CID>
20993973

$$$$
