10464950
  CDK     0104150955

 24 24  0  0  0  0  0  0  0  0999 V2000
    6.0010    2.0000    0.0000 O   0  0  0  0  0  0  0  0  0  0  0  0
    5.1350   -1.5000    0.0000 C   0  0  0  0  0  0  0  0  0  0  0  0
    4.2690   -2.0000    0.0000 C   0  0  0  0  0  0  0  0  0  0  0  0
    6.0010   -2.0000    0.0000 C   0  0  0  0  0  0  0  0  0  0  0  0
    4.2690   -3.0000    0.0000 C   0  0  0  0  0  0  0  0  0  0  0  0
    6.0010   -3.0000    0.0000 C   0  0  0  0  0  0  0  0  0  0  0  0
    5.1350   -3.5000    0.0000 C   0  0  0  0  0  0  0  0  0  0  0  0
    5.1350   -0.5000    0.0000 C   0  0  0  0  0  0  0  0  0  0  0  0
    5.1350    1.5000    0.0000 C   0  0  0  0  0  0  0  0  0  0  0  0
    3.4030   -1.5000    0.0000 C   0  0  0  0  0  0  0  0  0  0  0  0
    5.1350    0.5000    0.0000 C   0  0  0  0  0  0  0  0  0  0  0  0
    6.0010    3.0000    0.0000 C   0  0  0  0  0  0  0  0  0  0  0  0
    2.5369   -1.0000    0.0000 C   0  0  0  0  0  0  0  0  0  0  0  0
    6.8671    3.5000    0.0000 C   0  0  0  0  0  0  0  0  0  0  0  0
    6.5380   -1.6900    0.0000 H   0  0  0  0  0  0  0  0  0  0  0  0
    3.7320   -3.3100    0.0000 H   0  0  0  0  0  0  0  0  0  0  0  0
    6.5380   -3.3100    0.0000 H   0  0  0  0  0  0  0  0  0  0  0  0
    5.1350   -4.1200    0.0000 H   0  0  0  0  0  0  0  0  0  0  0  0
    4.9230    2.0826    0.0000 H   0  0  0  0  0  0  0  0  0  0  0  0
    4.5244    1.3923    0.0000 H   0  0  0  0  0  0  0  0  0  0  0  0
    5.4641    3.3100    0.0000 H   0  0  0  0  0  0  0  0  0  0  0  0
    2.0000   -0.6900    0.0000 H   0  0  0  0  0  0  0  0  0  0  0  0
    7.4040    3.1900    0.0000 H   0  0  0  0  0  0  0  0  0  0  0  0
    6.8671    4.1200    0.0000 H   0  0  0  0  0  0  0  0  0  0  0  0
  1  9  1  0  0  0  0 
  1 12  1  0  0  0  0 
  2  3  1  0  0  0  0 
  2  4  2  0  0  0  0 
  2  8  1  0  0  0  0 
  3  5  2  0  0  0  0 
  3 10  1  0  0  0  0 
  4  6  1  0  0  0  0 
  4 15  1  0  0  0  0 
  5  7  1  0  0  0  0 
  5 16  1  0  0  0  0 
  6  7  2  0  0  0  0 
  6 17  1  0  0  0  0 
  7 18  1  0  0  0  0 
  8 11  3  0  0  0  0 
  9 11  1  0  0  0  0 
  9 19  1  0  0  0  0 
  9 20  1  0  0  0  0 
 10 13  3  0  0  0  0 
 12 14  2  0  0  0  0 
 12 21  1  0  0  0  0 
 13 22  1  0  0  0  0 
 14 23  1  0  0  0  0 
 14 24  1  0  0  0  0 
M  END
> <cdk:Title>
10464950

> <cdk:Remark>
null

> <PUBCHEM_COMPOUND_CID>
10464950

> <PUBCHEM_COMPOUND_CANONICALIZED>
1

> <PUBCHEM_CACTVS_COMPLEXITY>
293

> <PUBCHEM_CACTVS_HBOND_ACCEPTOR>
1

> <PUBCHEM_CACTVS_HBOND_DONOR>
0

> <PUBCHEM_CACTVS_ROTATABLE_BOND>
4

> <PUBCHEM_CACTVS_SUBSKEYS>
AAADccBwIAAAAAAAAAAAAAAAAAAAAAAAAAAwAAAAAAAAAAABAAAAGgAAAAAADACgmAIwAIAABADAGiBCAAgCCAAgAAAIiAAAAIgIICKAERCAIAAggAAIiAcAgIAOgAAAAAAQAAAAAAAAACAAAAAAAAAAAA==

> <PUBCHEM_IUPAC_OPENEYE_NAME>
1-ethynyl-2-(3-vinyloxyprop-1-ynyl)benzene

> <PUBCHEM_IUPAC_CAS_NAME>
1-(3-ethenoxyprop-1-ynyl)-2-ethynylbenzene

> <PUBCHEM_IUPAC_NAME>
1-(3-ethenoxyprop-1-ynyl)-2-ethynylbenzene

> <PUBCHEM_IUPAC_SYSTEMATIC_NAME>
1-(3-ethenoxyprop-1-ynyl)-2-ethynyl-benzene

> <PUBCHEM_IUPAC_TRADITIONAL_NAME>
1-ethynyl-2-(3-vinyloxyprop-1-ynyl)benzene

> <PUBCHEM_IUPAC_INCHI>
InChI=1S/C13H10O/c1-3-12-8-5-6-9-13(12)10-7-11-14-4-2/h1,4-6,8-9H,2,11H2

> <PUBCHEM_IUPAC_INCHIKEY>
HBYXRTJDIHXKFT-UHFFFAOYSA-N

> <PUBCHEM_XLOGP3_AA>
3

> <PUBCHEM_EXACT_MASS>
182.073165

> <PUBCHEM_MOLECULAR_FORMULA>
C13H10O

> <PUBCHEM_MOLECULAR_WEIGHT>
182.2179

> <PUBCHEM_OPENEYE_CAN_SMILES>
C=COCC#CC1=CC=CC=C1C#C

> <PUBCHEM_OPENEYE_ISO_SMILES>
C=COCC#CC1=CC=CC=C1C#C

> <PUBCHEM_CACTVS_TPSA>
9.2

> <PUBCHEM_MONOISOTOPIC_WEIGHT>
182.073165

> <PUBCHEM_TOTAL_CHARGE>
0

> <PUBCHEM_HEAVY_ATOM_COUNT>
14

> <PUBCHEM_ATOM_DEF_STEREO_COUNT>
0

> <PUBCHEM_ATOM_UDEF_STEREO_COUNT>
0

> <PUBCHEM_BOND_DEF_STEREO_COUNT>
0

> <PUBCHEM_BOND_UDEF_STEREO_COUNT>
0

> <PUBCHEM_ISOTOPIC_ATOM_COUNT>
0

> <PUBCHEM_COMPONENT_COUNT>
1

> <PUBCHEM_CACTVS_TAUTO_COUNT>
1

> <PUBCHEM_COORDINATE_TYPE>
1

> <PUBCHEM_BONDANNOTATIONS>
2  3  8

$$$$
