38605558
  CDK     0104151054

 64 67  0  0  0  0  0  0  0  0999 V2000
    4.4487   -1.2088    0.0000 S   0  0  0  0  0  0  0  0  0  0  0  0
   12.2429    2.2912    0.0000 S   0  0  0  0  0  0  0  0  0  0  0  0
    3.9487   -0.3428    0.0000 O   0  0  0  0  0  0  0  0  0  0  0  0
    4.9487   -2.0748    0.0000 O   0  0  0  0  0  0  0  0  0  0  0  0
    7.9128    1.7912    0.0000 O   0  0  0  0  0  0  0  0  0  0  0  0
   13.9750   -0.7088    0.0000 O   0  0  0  0  0  0  0  0  0  0  0  0
    3.5827   -1.7088    0.0000 N   0  0  0  0  0  0  0  0  0  0  0  0
    5.3147   -0.7088    0.0000 N   0  0  0  0  0  0  0  0  0  0  0  0
    7.0468    0.2912    0.0000 N   0  0  0  0  0  0  0  0  0  0  0  0
   13.1090    0.7912    0.0000 N   0  0  0  0  0  0  0  0  0  0  0  0
   13.9750    2.2912    0.0000 N   0  0  0  0  0  0  0  0  0  0  0  0
    2.6691   -1.3020    0.0000 C   0  0  0  0  0  0  0  0  0  0  0  0
    3.4782   -2.7033    0.0000 C   0  0  0  0  0  0  0  0  0  0  0  0
    2.0000   -2.0452    0.0000 C   0  0  0  0  0  0  0  0  0  0  0  0
    2.5000   -2.9112    0.0000 C   0  0  0  0  0  0  0  0  0  0  0  0
    6.1808   -1.2088    0.0000 C   0  0  0  0  0  0  0  0  0  0  0  0
    5.3147    0.2912    0.0000 C   0  0  0  0  0  0  0  0  0  0  0  0
    6.1808    0.7912    0.0000 C   0  0  0  0  0  0  0  0  0  0  0  0
    7.0468   -0.7088    0.0000 C   0  0  0  0  0  0  0  0  0  0  0  0
    7.9128    0.7912    0.0000 C   0  0  0  0  0  0  0  0  0  0  0  0
    8.7788    0.2912    0.0000 C   0  0  0  0  0  0  0  0  0  0  0  0
    9.6448    0.7912    0.0000 C   0  0  0  0  0  0  0  0  0  0  0  0
   10.5109    0.2912    0.0000 C   0  0  0  0  0  0  0  0  0  0  0  0
   11.3769    0.7912    0.0000 C   0  0  0  0  0  0  0  0  0  0  0  0
   12.2429    0.2912    0.0000 C   0  0  0  0  0  0  0  0  0  0  0  0
   13.9750    0.2912    0.0000 C   0  0  0  0  0  0  0  0  0  0  0  0
   13.1090    1.7912    0.0000 C   0  0  0  0  0  0  0  0  0  0  0  0
   14.8410    0.7912    0.0000 C   0  0  0  0  0  0  0  0  0  0  0  0
   14.8410    1.7912    0.0000 C   0  0  0  0  0  0  0  0  0  0  0  0
   15.7349    0.2566    0.0000 C   0  0  0  0  0  0  0  0  0  0  0  0
   15.7349    2.3259    0.0000 C   0  0  0  0  0  0  0  0  0  0  0  0
   16.6410    0.7704    0.0000 C   0  0  0  0  0  0  0  0  0  0  0  0
   16.6410    1.8120    0.0000 C   0  0  0  0  0  0  0  0  0  0  0  0
    3.5430   -3.3199    0.0000 H   0  0  0  0  0  0  0  0  0  0  0  0
    4.0982   -2.7033    0.0000 H   0  0  0  0  0  0  0  0  0  0  0  0
    2.9791   -0.7651    0.0000 H   0  0  0  0  0  0  0  0  0  0  0  0
    2.1675   -0.9376    0.0000 H   0  0  0  0  0  0  0  0  0  0  0  0
    1.9336   -3.1634    0.0000 H   0  0  0  0  0  0  0  0  0  0  0  0
    2.6916   -3.5009    0.0000 H   0  0  0  0  0  0  0  0  0  0  0  0
    1.5851   -1.5844    0.0000 H   0  0  0  0  0  0  0  0  0  0  0  0
    1.4984   -2.4096    0.0000 H   0  0  0  0  0  0  0  0  0  0  0  0
    5.7822   -1.6837    0.0000 H   0  0  0  0  0  0  0  0  0  0  0  0
    6.5793   -1.6837    0.0000 H   0  0  0  0  0  0  0  0  0  0  0  0
    5.1027    0.8738    0.0000 H   0  0  0  0  0  0  0  0  0  0  0  0
    4.7042    0.1836    0.0000 H   0  0  0  0  0  0  0  0  0  0  0  0
    7.2588   -1.2914    0.0000 H   0  0  0  0  0  0  0  0  0  0  0  0
    7.6574   -0.6011    0.0000 H   0  0  0  0  0  0  0  0  0  0  0  0
    6.5793    1.2662    0.0000 H   0  0  0  0  0  0  0  0  0  0  0  0
    5.7822    1.2662    0.0000 H   0  0  0  0  0  0  0  0  0  0  0  0
    8.3803   -0.1837    0.0000 H   0  0  0  0  0  0  0  0  0  0  0  0
    9.1774   -0.1837    0.0000 H   0  0  0  0  0  0  0  0  0  0  0  0
   10.0434    1.2662    0.0000 H   0  0  0  0  0  0  0  0  0  0  0  0
    9.2463    1.2662    0.0000 H   0  0  0  0  0  0  0  0  0  0  0  0
   10.1124   -0.1837    0.0000 H   0  0  0  0  0  0  0  0  0  0  0  0
   10.9094   -0.1837    0.0000 H   0  0  0  0  0  0  0  0  0  0  0  0
   11.7754    1.2662    0.0000 H   0  0  0  0  0  0  0  0  0  0  0  0
   10.9784    1.2662    0.0000 H   0  0  0  0  0  0  0  0  0  0  0  0
   11.8444   -0.1837    0.0000 H   0  0  0  0  0  0  0  0  0  0  0  0
   12.6415   -0.1837    0.0000 H   0  0  0  0  0  0  0  0  0  0  0  0
   13.9750    2.9112    0.0000 H   0  0  0  0  0  0  0  0  0  0  0  0
   15.7278   -0.3634    0.0000 H   0  0  0  0  0  0  0  0  0  0  0  0
   15.7278    2.9458    0.0000 H   0  0  0  0  0  0  0  0  0  0  0  0
   17.1768    0.4583    0.0000 H   0  0  0  0  0  0  0  0  0  0  0  0
   17.1768    2.1241    0.0000 H   0  0  0  0  0  0  0  0  0  0  0  0
  1  3  2  0  0  0  0 
  1  4  2  0  0  0  0 
  1  7  1  0  0  0  0 
  1  8  1  0  0  0  0 
  2 27  2  0  0  0  0 
  5 20  2  0  0  0  0 
  6 26  2  0  0  0  0 
  7 12  1  0  0  0  0 
  7 13  1  0  0  0  0 
  8 16  1  0  0  0  0 
  8 17  1  0  0  0  0 
  9 18  1  0  0  0  0 
  9 19  1  0  0  0  0 
  9 20  1  0  0  0  0 
 10 25  1  0  0  0  0 
 10 26  1  0  0  0  0 
 10 27  1  0  0  0  0 
 11 27  1  0  0  0  0 
 11 29  1  0  0  0  0 
 11 60  1  0  0  0  0 
 12 14  1  0  0  0  0 
 12 36  1  0  0  0  0 
 12 37  1  0  0  0  0 
 13 15  1  0  0  0  0 
 13 34  1  0  0  0  0 
 13 35  1  0  0  0  0 
 14 15  1  0  0  0  0 
 14 40  1  0  0  0  0 
 14 41  1  0  0  0  0 
 15 38  1  0  0  0  0 
 15 39  1  0  0  0  0 
 16 19  1  0  0  0  0 
 16 42  1  0  0  0  0 
 16 43  1  0  0  0  0 
 17 18  1  0  0  0  0 
 17 44  1  0  0  0  0 
 17 45  1  0  0  0  0 
 18 48  1  0  0  0  0 
 18 49  1  0  0  0  0 
 19 46  1  0  0  0  0 
 19 47  1  0  0  0  0 
 20 21  1  0  0  0  0 
 21 22  1  0  0  0  0 
 21 50  1  0  0  0  0 
 21 51  1  0  0  0  0 
 22 23  1  0  0  0  0 
 22 52  1  0  0  0  0 
 22 53  1  0  0  0  0 
 23 24  1  0  0  0  0 
 23 54  1  0  0  0  0 
 23 55  1  0  0  0  0 
 24 25  1  0  0  0  0 
 24 56  1  0  0  0  0 
 24 57  1  0  0  0  0 
 25 58  1  0  0  0  0 
 25 59  1  0  0  0  0 
 26 28  1  0  0  0  0 
 28 29  1  0  0  0  0 
 28 30  2  0  0  0  0 
 29 31  2  0  0  0  0 
 30 32  1  0  0  0  0 
 30 61  1  0  0  0  0 
 31 33  1  0  0  0  0 
 31 62  1  0  0  0  0 
 32 33  2  0  0  0  0 
 32 63  1  0  0  0  0 
 33 64  1  0  0  0  0 
M  END
> <cdk:Title>
38605558

> <cdk:Remark>
null

> <PUBCHEM_COMPOUND_CID>
38605558

> <PUBCHEM_COMPOUND_CANONICALIZED>
1

> <PUBCHEM_CACTVS_COMPLEXITY>
832

> <PUBCHEM_CACTVS_HBOND_ACCEPTOR>
7

> <PUBCHEM_CACTVS_HBOND_DONOR>
1

> <PUBCHEM_CACTVS_ROTATABLE_BOND>
8

> <PUBCHEM_CACTVS_SUBSKEYS>
AAADceB7uABgAAAAAAAAAAAAAAAAAWAAAAA8WIAAAAAAAACxAAAAHgQQQAAADAjBmAQxwIPAAACMAiVSUDCCAAAlAgkIiAEIZMiIYDrA1ZGUIYholwLIyecYiACOAAAAAAACAAAAAAAAAAQAAAAAAAAAAA==

> <PUBCHEM_IUPAC_OPENEYE_NAME>
3-[6-oxo-6-(4-pyrrolidin-1-ylsulfonylpiperazin-1-yl)hexyl]-2-thioxo-1H-quinazolin-4-one

> <PUBCHEM_IUPAC_CAS_NAME>
3-[6-oxo-6-[4-(1-pyrrolidinylsulfonyl)-1-piperazinyl]hexyl]-2-sulfanylidene-1H-quinazolin-4-one

> <PUBCHEM_IUPAC_NAME>
3-[6-oxo-6-(4-pyrrolidin-1-ylsulfonylpiperazin-1-yl)hexyl]-2-sulfanylidene-1H-quinazolin-4-one

> <PUBCHEM_IUPAC_SYSTEMATIC_NAME>
3-[6-oxidanylidene-6-(4-pyrrolidin-1-ylsulfonylpiperazin-1-yl)hexyl]-2-sulfanylidene-1H-quinazolin-4-one

> <PUBCHEM_IUPAC_TRADITIONAL_NAME>
3-[6-keto-6-(4-pyrrolidinosulfonylpiperazino)hexyl]-2-thioxo-1H-quinazolin-4-one

> <PUBCHEM_IUPAC_INCHI>
InChI=1S/C22H31N5O4S2/c28-20(24-14-16-26(17-15-24)33(30,31)25-11-6-7-12-25)10-2-1-5-13-27-21(29)18-8-3-4-9-19(18)23-22(27)32/h3-4,8-9H,1-2,5-7,10-17H2,(H,23,32)

> <PUBCHEM_IUPAC_INCHIKEY>
VJMRLFQUMYCBJP-UHFFFAOYSA-N

> <PUBCHEM_XLOGP3_AA>
1.2

> <PUBCHEM_EXACT_MASS>
493.181746

> <PUBCHEM_MOLECULAR_FORMULA>
C22H31N5O4S2

> <PUBCHEM_MOLECULAR_WEIGHT>
493.64264

> <PUBCHEM_OPENEYE_CAN_SMILES>
C1CCN(C1)S(=O)(=O)N2CCN(CC2)C(=O)CCCCCN3C(=O)C4=CC=CC=C4NC3=S

> <PUBCHEM_OPENEYE_ISO_SMILES>
C1CCN(C1)S(=O)(=O)N2CCN(CC2)C(=O)CCCCCN3C(=O)C4=CC=CC=C4NC3=S

> <PUBCHEM_CACTVS_TPSA>
134

> <PUBCHEM_MONOISOTOPIC_WEIGHT>
493.181746

> <PUBCHEM_TOTAL_CHARGE>
0

> <PUBCHEM_HEAVY_ATOM_COUNT>
33

> <PUBCHEM_ATOM_DEF_STEREO_COUNT>
0

> <PUBCHEM_ATOM_UDEF_STEREO_COUNT>
0

> <PUBCHEM_BOND_DEF_STEREO_COUNT>
0

> <PUBCHEM_BOND_UDEF_STEREO_COUNT>
0

> <PUBCHEM_ISOTOPIC_ATOM_COUNT>
0

> <PUBCHEM_COMPONENT_COUNT>
1

> <PUBCHEM_CACTVS_TAUTO_COUNT>
5

> <PUBCHEM_COORDINATE_TYPE>
1

> <PUBCHEM_BONDANNOTATIONS>
10  26  8

$$$$
