
  CDK     0202151413

 13 13  0  0  0  0  0  0  0  0999 V2000
    5.5443   -0.0057    0.0000 O   0  0  0  0  0  0  0  0  0  0  0  0
    7.6279    1.6651    0.0000 O   0  0  0  0  0  0  0  0  0  0  0  0
    7.6279   -0.0670    0.0000 N   0  0  0  0  0  0  0  0  0  0  0  0
    4.5981    1.2990    0.0000 C   0  0  0  0  0  0  0  0  0  0  0  0
    4.5981    0.2990    0.0000 C   0  0  0  0  0  0  0  0  0  0  0  0
    6.1279    0.7990    0.0000 C   0  0  0  0  0  0  0  0  0  0  0  0
    5.5443    1.6038    0.0000 C   0  0  0  0  0  0  0  0  0  0  0  0
    8.6279   -0.0670    0.0000 C   0  0  0  0  0  0  0  0  0  0  0  0
    7.1279    0.7990    0.0000 C   0  0  0  0  0  0  0  0  0  0  0  0
    3.7320    1.7990    0.0000 C   0  0  0  0  0  0  0  0  0  0  0  0
    3.7320   -0.2010    0.0000 C   0  0  0  0  0  0  0  0  0  0  0  0
    9.1279   -0.9330    0.0000 C   0  0  0  0  0  0  0  0  0  0  0  0
    9.1279    0.7990    0.0000 C   0  0  0  0  0  0  0  0  0  0  0  0
  1  5  1  0  0  0  0 
  1  6  1  0  0  0  0 
  2  9  1  0  0  0  0 
  3  8  1  0  0  0  0 
  3  9  1  0  0  0  0 
  4  5  1  0  0  0  0 
  4  7  1  0  0  0  0 
  4 10  1  0  0  0  0 
  5 11  1  0  0  0  0 
  6  7  1  0  0  0  0 
  6  9  1  0  0  0  0 
  8 12  1  0  0  0  0 
  8 13  1  0  0  0  0 
M  END
> <PUBCHEM_COMPOUND_CID>
19240983

$$$$

  CDK     0202151413

 13 13  0  0  0  0  0  0  0  0999 V2000
    5.5443   -0.0057    0.0000 O   0  0  0  0  0  0  0  0  0  0  0  0
    7.6279    1.6651    0.0000 O   0  0  0  0  0  0  0  0  0  0  0  0
    7.6279   -0.0670    0.0000 N   0  0  0  0  0  0  0  0  0  0  0  0
    4.5981    1.2990    0.0000 C   0  0  0  0  0  0  0  0  0  0  0  0
    4.5981    0.2990    0.0000 C   0  0  0  0  0  0  0  0  0  0  0  0
    6.1279    0.7990    0.0000 C   0  0  0  0  0  0  0  0  0  0  0  0
    5.5443    1.6038    0.0000 C   0  0  0  0  0  0  0  0  0  0  0  0
    8.6279   -0.0670    0.0000 C   0  0  0  0  0  0  0  0  0  0  0  0
    7.1279    0.7990    0.0000 C   0  0  0  0  0  0  0  0  0  0  0  0
    3.7320    1.7990    0.0000 C   0  0  0  0  0  0  0  0  0  0  0  0
    3.7320   -0.2010    0.0000 C   0  0  0  0  0  0  0  0  0  0  0  0
    9.1279   -0.9330    0.0000 C   0  0  0  0  0  0  0  0  0  0  0  0
    9.1279    0.7990    0.0000 C   0  0  0  0  0  0  0  0  0  0  0  0
  1  5  1  0  0  0  0 
  1  6  1  0  0  0  0 
  2  9  1  0  0  0  0 
  3  8  1  0  0  0  0 
  3  9  1  0  0  0  0 
  4  5  1  0  0  0  0 
  4  7  1  0  0  0  0 
  4 10  1  0  0  0  0 
  5 11  1  0  0  0  0 
  6  7  1  0  0  0  0 
  6  9  1  0  0  0  0 
  8 12  1  0  0  0  0 
  8 13  1  0  0  0  0 
M  END
> <PUBCHEM_COMPOUND_CID>
19240983

$$$$

  CDK     0202151413

 14 14  0  0  0  0  0  0  0  0999 V2000
    5.4641    2.0670    0.0000 N   0  0  0  0  0  0  0  0  0  0  0  0
    3.7320   -2.9330    0.0000 N   0  0  0  0  0  0  0  0  0  0  0  0
    6.3301    3.5670    0.0000 C   0  0  2  0  0  0  0  0  0  0  0  0
    5.4641    3.0670    0.0000 C   0  0  0  0  0  0  0  0  0  0  0  0
    4.5981    1.5670    0.0000 C   0  0  0  0  0  0  0  0  0  0  0  0
    4.5981    0.5670    0.0000 C   0  0  0  0  0  0  0  0  0  0  0  0
    4.5981   -2.4330    0.0000 C   0  0  0  0  0  0  0  0  0  0  0  0
    2.8660   -2.4330    0.0000 C   0  0  0  0  0  0  0  0  0  0  0  0
    3.7320   -3.9330    0.0000 C   0  0  0  0  0  0  0  0  0  0  0  0
    4.5981   -1.4330    0.0000 C   0  0  0  0  0  0  0  0  0  0  0  0
    3.7320    0.0670    0.0000 C   0  0  0  0  0  0  0  0  0  0  0  0
    5.4641    0.0670    0.0000 C   0  0  0  0  0  0  0  0  0  0  0  0
    3.7320   -0.9330    0.0000 C   0  0  0  0  0  0  0  0  0  0  0  0
    5.4641   -0.9330    0.0000 C   0  0  0  0  0  0  0  0  0  0  0  0
  1  4  1  0  0  0  0 
  1  5  1  0  0  0  0 
  2  7  1  0  0  0  0 
  2  8  1  0  0  0  0 
  2  9  1  0  0  0  0 
  3  4  1  1  0  0  0 
  5  6  1  0  0  0  0 
  6 11  1  0  0  0  0 
  6 12  1  0  0  0  0 
  7 10  1  0  0  0  0 
 10 13  1  0  0  0  0 
 10 14  1  0  0  0  0 
 11 13  1  0  0  0  0 
 12 14  1  0  0  0  0 
M  END
> <PUBCHEM_COMPOUND_CID>
29881511

$$$$
