21609844
  CDK     1229141458

 67 73  0  0  0  0  0  0  0  0999 V2000
    4.8807   -2.4750    0.0000 Br  0  0  0  0  0  0  0  0  0  0  0  0
    8.3637    3.7588    0.0000 S   0  0  0  0  0  0  0  0  0  0  0  0
    2.7129    4.5571    0.0000 S   0  0  0  0  0  0  0  0  0  0  0  0
   11.9517   -4.5627    0.0000 S   0  0  0  0  0  0  0  0  0  0  0  0
    8.9393    4.5765    0.0000 O   0  0  0  0  0  0  0  0  0  0  0  0
    7.5460    4.3344    0.0000 O   0  0  0  0  0  0  0  0  0  0  0  0
    9.1815    3.1832    0.0000 O   0  0  0  0  0  0  0  0  0  0  0  0
    2.0117    5.2700    0.0000 O   0  0  0  0  0  0  0  0  0  0  0  0
    2.0000    3.8559    0.0000 O   0  0  0  0  0  0  0  0  0  0  0  0
    3.4258    5.2584    0.0000 O   0  0  0  0  0  0  0  0  0  0  0  0
   12.6585   -5.2700    0.0000 O   0  0  0  0  0  0  0  0  0  0  0  0
   11.2443   -5.2696    0.0000 O   0  0  0  0  0  0  0  0  0  0  0  0
   12.6590   -3.8558    0.0000 O   0  0  0  0  0  0  0  0  0  0  0  0
    7.2876    1.3388    0.0000 N   0  0  0  0  0  0  0  0  0  0  0  0
    8.8228   -0.0307    0.0000 N   0  0  0  0  0  0  0  0  0  0  0  0
    5.8176   -0.0307    0.0000 N   0  0  0  0  0  0  0  0  0  0  0  0
    7.3210   -1.4002    0.0000 N   0  0  0  0  0  0  0  0  0  0  0  0
    6.4856    1.9733    0.0000 C   0  0  0  0  0  0  0  0  0  0  0  0
    8.1230    2.0068    0.0000 C   0  0  0  0  0  0  0  0  0  0  0  0
    5.5179    1.7055    0.0000 C   0  0  0  0  0  0  0  0  0  0  0  0
    7.7881    2.9410    0.0000 C   0  0  0  0  0  0  0  0  0  0  0  0
    6.7870    2.9410    0.0000 C   0  0  0  0  0  0  0  0  0  0  0  0
    9.4238   -0.7657    0.0000 C   0  0  0  0  0  0  0  0  0  0  0  0
    9.3904    0.7713    0.0000 C   0  0  0  0  0  0  0  0  0  0  0  0
    9.0907    1.7055    0.0000 C   0  0  0  0  0  0  0  0  0  0  0  0
    9.1242   -1.7333    0.0000 C   0  0  0  0  0  0  0  0  0  0  0  0
    5.2500    0.7378    0.0000 C   0  0  0  0  0  0  0  0  0  0  0  0
    4.8167    2.4184    0.0000 C   0  0  0  0  0  0  0  0  0  0  0  0
   10.3597   -0.4978    0.0000 C   0  0  0  0  0  0  0  0  0  0  0  0
   10.3597    0.5034    0.0000 C   0  0  0  0  0  0  0  0  0  0  0  0
    8.1230   -2.0012    0.0000 C   0  0  0  0  0  0  0  0  0  0  0  0
    9.8310   -2.4407    0.0000 C   0  0  0  0  0  0  0  0  0  0  0  0
    4.2824    0.4699    0.0000 C   0  0  0  0  0  0  0  0  0  0  0  0
    5.2500   -0.7991    0.0000 C   0  0  0  0  0  0  0  0  0  0  0  0
    5.0834    3.3821    0.0000 C   0  0  0  0  0  0  0  0  0  0  0  0
    3.8486    2.1675    0.0000 C   0  0  0  0  0  0  0  0  0  0  0  0
    6.5191   -2.0347    0.0000 C   0  0  0  0  0  0  0  0  0  0  0  0
    7.8216   -2.9689    0.0000 C   0  0  0  0  0  0  0  0  0  0  0  0
    4.2824   -0.5313    0.0000 C   0  0  0  0  0  0  0  0  0  0  0  0
    5.5514   -1.7333    0.0000 C   0  0  0  0  0  0  0  0  0  0  0  0
    9.5719   -3.4065    0.0000 C   0  0  0  0  0  0  0  0  0  0  0  0
   10.7970   -2.1822    0.0000 C   0  0  0  0  0  0  0  0  0  0  0  0
    6.8204   -2.9689    0.0000 C   0  0  0  0  0  0  0  0  0  0  0  0
    3.4142    3.8442    0.0000 C   0  0  0  0  0  0  0  0  0  0  0  0
    4.3822    4.0950    0.0000 C   0  0  0  0  0  0  0  0  0  0  0  0
    3.1474    2.8804    0.0000 C   0  0  0  0  0  0  0  0  0  0  0  0
   11.2448   -3.8554    0.0000 C   0  0  0  0  0  0  0  0  0  0  0  0
   10.2788   -4.1139    0.0000 C   0  0  0  0  0  0  0  0  0  0  0  0
   11.5039   -2.8895    0.0000 C   0  0  0  0  0  0  0  0  0  0  0  0
    7.2891    0.7188    0.0000 H   0  0  0  0  0  0  0  0  0  0  0  0
    6.4195    3.4404    0.0000 H   0  0  0  0  0  0  0  0  0  0  0  0
    9.5272    2.1457    0.0000 H   0  0  0  0  0  0  0  0  0  0  0  0
    8.2032   -0.0522    0.0000 H   0  0  0  0  0  0  0  0  0  0  0  0
   10.8548   -0.8710    0.0000 H   0  0  0  0  0  0  0  0  0  0  0  0
   10.8531    0.8789    0.0000 H   0  0  0  0  0  0  0  0  0  0  0  0
    3.7889    0.8453    0.0000 H   0  0  0  0  0  0  0  0  0  0  0  0
    5.6836    3.5377    0.0000 H   0  0  0  0  0  0  0  0  0  0  0  0
    3.6832    1.5700    0.0000 H   0  0  0  0  0  0  0  0  0  0  0  0
    8.1891   -3.4682    0.0000 H   0  0  0  0  0  0  0  0  0  0  0  0
    3.7889   -0.9067    0.0000 H   0  0  0  0  0  0  0  0  0  0  0  0
    8.9730   -3.5668    0.0000 H   0  0  0  0  0  0  0  0  0  0  0  0
   10.9577   -1.5834    0.0000 H   0  0  0  0  0  0  0  0  0  0  0  0
    6.4555   -3.4701    0.0000 H   0  0  0  0  0  0  0  0  0  0  0  0
    4.5476    4.6926    0.0000 H   0  0  0  0  0  0  0  0  0  0  0  0
    2.5472    2.7249    0.0000 H   0  0  0  0  0  0  0  0  0  0  0  0
   10.1181   -4.7127    0.0000 H   0  0  0  0  0  0  0  0  0  0  0  0
   12.1028   -2.7292    0.0000 H   0  0  0  0  0  0  0  0  0  0  0  0
  1 40  1  0  0  0  0 
  2  5  1  0  0  0  0 
  2  6  2  0  0  0  0 
  2  7  2  0  0  0  0 
  2 21  1  0  0  0  0 
  3  8  1  0  0  0  0 
  3  9  2  0  0  0  0 
  3 10  2  0  0  0  0 
  3 44  1  0  0  0  0 
  4 11  1  0  0  0  0 
  4 12  2  0  0  0  0 
  4 13  2  0  0  0  0 
  4 47  1  0  0  0  0 
 14 18  1  0  0  0  0 
 14 19  1  0  0  0  0 
 14 50  1  0  0  0  0 
 15 23  1  0  0  0  0 
 15 24  1  0  0  0  0 
 15 53  1  0  0  0  0 
 16 27  1  0  0  0  0 
 16 34  2  0  0  0  0 
 17 31  2  0  0  0  0 
 17 37  1  0  0  0  0 
 18 20  1  0  0  0  0 
 18 22  2  0  0  0  0 
 19 21  2  0  0  0  0 
 19 25  1  0  0  0  0 
 20 27  2  0  0  0  0 
 20 28  1  0  0  0  0 
 21 22  1  0  0  0  0 
 22 51  1  0  0  0  0 
 23 26  2  0  0  0  0 
 23 29  1  0  0  0  0 
 24 25  2  0  0  0  0 
 24 30  1  0  0  0  0 
 25 52  1  0  0  0  0 
 26 31  1  0  0  0  0 
 26 32  1  0  0  0  0 
 27 33  1  0  0  0  0 
 28 35  2  0  0  0  0 
 28 36  1  0  0  0  0 
 29 30  2  0  0  0  0 
 29 54  1  0  0  0  0 
 30 55  1  0  0  0  0 
 31 38  1  0  0  0  0 
 32 41  2  0  0  0  0 
 32 42  1  0  0  0  0 
 33 39  2  0  0  0  0 
 33 56  1  0  0  0  0 
 34 39  1  0  0  0  0 
 34 40  1  0  0  0  0 
 35 45  1  0  0  0  0 
 35 57  1  0  0  0  0 
 36 46  2  0  0  0  0 
 36 58  1  0  0  0  0 
 37 40  2  0  0  0  0 
 37 43  1  0  0  0  0 
 38 43  2  0  0  0  0 
 38 59  1  0  0  0  0 
 39 60  1  0  0  0  0 
 41 48  1  0  0  0  0 
 41 61  1  0  0  0  0 
 42 49  2  0  0  0  0 
 42 62  1  0  0  0  0 
 43 63  1  0  0  0  0 
 44 45  2  0  0  0  0 
 44 46  1  0  0  0  0 
 45 64  1  0  0  0  0 
 46 65  1  0  0  0  0 
 47 48  2  0  0  0  0 
 47 49  1  0  0  0  0 
 48 66  1  0  0  0  0 
 49 67  1  0  0  0  0 
M  CHG  1   5  -1
M  CHG  1   8  -1
M  CHG  1  11  -1
M  END
> <cdk:Title>
21609844

> <cdk:Remark>
null

> <PUBCHEM_COMPOUND_CID>
21609844

> <PUBCHEM_COMPOUND_CANONICALIZED>
1

> <PUBCHEM_CACTVS_COMPLEXITY>
1460

> <PUBCHEM_CACTVS_HBOND_ACCEPTOR>
11

> <PUBCHEM_CACTVS_HBOND_DONOR>
2

> <PUBCHEM_CACTVS_ROTATABLE_BOND>
2

> <PUBCHEM_CACTVS_SUBSKEYS>
AAADceB/vABgEAAAAAAAAAAAAAAAAWLFiwAwYAAAAAAAAAAB/gAAHARQAAABrAiBXgAwwbLJkAKgAyRiRHDCgGAhAiQImTwwZLgIIOLA0dGEJAxgkADIyhcQgMAOkAAAAAAAAAAgAAAAAAAAAAAAAAAAAA==

> <PUBCHEM_IUPAC_OPENEYE_NAME>
10-bromo-5,15-bis(4-sulfonatophenyl)-21,24-dihydroporphyrin-2-sulfonate

> <PUBCHEM_IUPAC_CAS_NAME>
10-bromo-5,15-bis(4-sulfonatophenyl)-21,24-dihydroporphyrin-2-sulfonate

> <PUBCHEM_IUPAC_NAME>
10-bromo-5,15-bis(4-sulfonatophenyl)-21,24-dihydroporphyrin-2-sulfonate

> <PUBCHEM_IUPAC_SYSTEMATIC_NAME>
10-bromanyl-5,15-bis(4-sulfonatophenyl)-21,24-dihydroporphyrin-2-sulfonate

> <PUBCHEM_IUPAC_TRADITIONAL_NAME>
10-bromo-5,15-bis(4-sulfonatophenyl)-21,24-dihydroporphine-2-sulfonate

> <PUBCHEM_IUPAC_INCHI>
InChI=1S/C32H21BrN4O9S3/c33-32-25-13-11-23(35-25)30(17-1-6-20(7-2-17)47(38,39)40)22-10-5-19(34-22)15-27-29(49(44,45)46)16-28(37-27)31(24-12-14-26(32)36-24)18-3-8-21(9-4-18)48(41,42)43/h1-16,34,37H,(H,38,39,40)(H,41,42,43)(H,44,45,46)/p-3

> <PUBCHEM_IUPAC_INCHIKEY>
RPWCRZHWKPOEKJ-UHFFFAOYSA-K

> <PUBCHEM_XLOGP3_AA>
3.8

> <PUBCHEM_EXACT_MASS>
776.941928

> <PUBCHEM_MOLECULAR_FORMULA>
C32H18BrN4O9S3-3

> <PUBCHEM_MOLECULAR_WEIGHT>
778.60572

> <PUBCHEM_OPENEYE_CAN_SMILES>
C1=CC(=CC=C1C2=C3C=CC(=CC4=C(C=C(N4)C(=C5C=CC(=N5)C(=C6C=CC2=N6)Br)C7=CC=C(C=C7)S(=O)(=O)[O-])S(=O)(=O)[O-])N3)S(=O)(=O)[O-]

> <PUBCHEM_OPENEYE_ISO_SMILES>
C1=CC(=CC=C1C2=C3C=CC(=CC4=C(C=C(N4)C(=C5C=CC(=N5)C(=C6C=CC2=N6)Br)C7=CC=C(C=C7)S(=O)(=O)[O-])S(=O)(=O)[O-])N3)S(=O)(=O)[O-]

> <PUBCHEM_CACTVS_TPSA>
254

> <PUBCHEM_MONOISOTOPIC_WEIGHT>
776.941928

> <PUBCHEM_TOTAL_CHARGE>
-3

> <PUBCHEM_HEAVY_ATOM_COUNT>
49

> <PUBCHEM_ATOM_DEF_STEREO_COUNT>
0

> <PUBCHEM_ATOM_UDEF_STEREO_COUNT>
0

> <PUBCHEM_BOND_DEF_STEREO_COUNT>
0

> <PUBCHEM_BOND_UDEF_STEREO_COUNT>
0

> <PUBCHEM_ISOTOPIC_ATOM_COUNT>
0

> <PUBCHEM_COMPONENT_COUNT>
1

> <PUBCHEM_CACTVS_TAUTO_COUNT>
6

> <PUBCHEM_COORDINATE_TYPE>
1

> <PUBCHEM_BONDANNOTATIONS>
14  18  8

$$$$
