45094499
  CDK     1213141750

 34 35  0  0  0  0  0  0  0  0999 V2000
    2.3082    0.3482    0.0000 O   0  0  0  0  0  0  0  0  0  0  0  0
    5.8799    1.8330    0.0000 O   0  0  0  0  0  0  0  0  0  0  0  0
    4.6876   -0.5178    0.0000 C   0  0  0  0  0  0  0  0  0  0  0  0
    5.1876    0.3482    0.0000 C   0  0  0  0  0  0  0  0  0  0  0  0
    3.7479   -0.8598    0.0000 C   0  0  0  0  0  0  0  0  0  0  0  0
    5.0139    1.3330    0.0000 C   0  0  0  0  0  0  0  0  0  0  0  0
    3.2479    1.9758    0.0000 C   0  0  0  0  0  0  0  0  0  0  0  0
    2.8082   -0.5178    0.0000 C   0  0  0  0  0  0  0  0  0  0  0  0
    4.2479    1.9758    0.0000 C   0  0  0  0  0  0  0  0  0  0  0  0
    2.4818    1.3330    0.0000 C   0  0  0  0  0  0  0  0  0  0  0  0
    3.9445   -1.8827    0.0000 C   0  0  0  0  0  0  0  0  0  0  0  0
    2.0000   -1.1750    0.0000 C   0  0  0  0  0  0  0  0  0  0  0  0
    3.1518   -2.5584    0.0000 C   0  0  0  0  0  0  0  0  0  0  0  0
    2.1730   -2.2022    0.0000 C   0  0  0  0  0  0  0  0  0  0  0  0
    6.7460    1.3330    0.0000 C   0  0  0  0  0  0  0  0  0  0  0  0
    7.6120    1.8330    0.0000 C   0  0  0  0  0  0  0  0  0  0  0  0
    4.7236   -1.1368    0.0000 H   0  0  0  0  0  0  0  0  0  0  0  0
    5.2908   -0.6608    0.0000 H   0  0  0  0  0  0  0  0  0  0  0  0
    5.6130   -0.1028    0.0000 H   0  0  0  0  0  0  0  0  0  0  0  0
    5.7416    0.6265    0.0000 H   0  0  0  0  0  0  0  0  0  0  0  0
    3.4257    2.5698    0.0000 H   0  0  0  0  0  0  0  0  0  0  0  0
    2.7298    2.3165    0.0000 H   0  0  0  0  0  0  0  0  0  0  0  0
    4.4599    2.5584    0.0000 H   0  0  0  0  0  0  0  0  0  0  0  0
    2.2362    1.9023    0.0000 H   0  0  0  0  0  0  0  0  0  0  0  0
    1.8660    1.2610    0.0000 H   0  0  0  0  0  0  0  0  0  0  0  0
    4.5296   -2.0880    0.0000 H   0  0  0  0  0  0  0  0  0  0  0  0
    1.4199   -0.9562    0.0000 H   0  0  0  0  0  0  0  0  0  0  0  0
    3.2618   -3.1686    0.0000 H   0  0  0  0  0  0  0  0  0  0  0  0
    1.6965   -2.5988    0.0000 H   0  0  0  0  0  0  0  0  0  0  0  0
    6.3474    0.8581    0.0000 H   0  0  0  0  0  0  0  0  0  0  0  0
    7.1445    0.8581    0.0000 H   0  0  0  0  0  0  0  0  0  0  0  0
    7.9220    1.2961    0.0000 H   0  0  0  0  0  0  0  0  0  0  0  0
    8.1489    2.1430    0.0000 H   0  0  0  0  0  0  0  0  0  0  0  0
    7.3020    2.3699    0.0000 H   0  0  0  0  0  0  0  0  0  0  0  0
  1  8  1  0  0  0  0 
  1 10  1  0  0  0  0 
  2  6  1  0  0  0  0 
  2 15  1  0  0  0  0 
  3  4  1  0  0  0  0 
  3  5  1  0  0  0  0 
  3 17  1  0  0  0  0 
  3 18  1  0  0  0  0 
  4  6  1  0  0  0  0 
  4 19  1  0  0  0  0 
  4 20  1  0  0  0  0 
  5  8  1  0  0  0  0 
  5 11  2  0  0  0  0 
  6  9  2  0  0  0  0 
  7  9  1  0  0  0  0 
  7 10  1  0  0  0  0 
  7 21  1  0  0  0  0 
  7 22  1  0  0  0  0 
  8 12  2  0  0  0  0 
  9 23  1  0  0  0  0 
 10 24  1  0  0  0  0 
 10 25  1  0  0  0  0 
 11 13  1  0  0  0  0 
 11 26  1  0  0  0  0 
 12 14  1  0  0  0  0 
 12 27  1  0  0  0  0 
 13 14  2  0  0  0  0 
 13 28  1  0  0  0  0 
 14 29  1  0  0  0  0 
 15 16  1  0  0  0  0 
 15 30  1  0  0  0  0 
 15 31  1  0  0  0  0 
 16 32  1  0  0  0  0 
 16 33  1  0  0  0  0 
 16 34  1  0  0  0  0 
M  END
> <cdk:Title>
45094499

> <cdk:Remark>
null

> <PUBCHEM_COMPOUND_CID>
45094499

> <PUBCHEM_COMPOUND_CANONICALIZED>
1

> <PUBCHEM_CACTVS_COMPLEXITY>
235

> <PUBCHEM_CACTVS_HBOND_ACCEPTOR>
2

> <PUBCHEM_CACTVS_HBOND_DONOR>
0

> <PUBCHEM_CACTVS_ROTATABLE_BOND>
2

> <PUBCHEM_CACTVS_SUBSKEYS>
AAADceBwMAAAAAAAAAAAAAAAAAAAAAAAAAAwAAAAAAAAAEABAAAAGgAAAAAADASgmAIyBoAABACAAiBCAAACCAAgIAAIiAAGCIgMJiKEMRqCOCCkwBEIqAeA4KwOAAAAAAAIAAAAAAAAABAAAAAAAAAAAA==

> <PUBCHEM_IUPAC_OPENEYE_NAME>
(4E)-5-ethoxy-2,3,6,7-tetrahydro-1-benzoxonine

> <PUBCHEM_IUPAC_CAS_NAME>
(4E)-5-ethoxy-2,3,6,7-tetrahydro-1-benzoxonin

> <PUBCHEM_IUPAC_NAME>
(4E)-5-ethoxy-2,3,6,7-tetrahydro-1-benzoxonine

> <PUBCHEM_IUPAC_SYSTEMATIC_NAME>
(4E)-5-ethoxy-2,3,6,7-tetrahydro-1-benzoxonine

> <PUBCHEM_IUPAC_TRADITIONAL_NAME>
(4E)-5-ethoxy-2,3,6,7-tetrahydro-1-benzoxonin

> <PUBCHEM_IUPAC_INCHI>
InChI=1S/C14H18O2/c1-2-15-13-7-5-11-16-14-8-4-3-6-12(14)9-10-13/h3-4,6-8H,2,5,9-11H2,1H3/b13-7+

> <PUBCHEM_IUPAC_INCHIKEY>
QDZYEPSZSVBVTR-NTUHNPAUSA-N

> <PUBCHEM_XLOGP3_AA>
3.4

> <PUBCHEM_EXACT_MASS>
218.13068

> <PUBCHEM_MOLECULAR_FORMULA>
C14H18O2

> <PUBCHEM_MOLECULAR_WEIGHT>
218.29152

> <PUBCHEM_OPENEYE_CAN_SMILES>
CCOC1=CCCOC2=CC=CC=C2CC1

> <PUBCHEM_OPENEYE_ISO_SMILES>
CCO/C/1=C/CCOC2=CC=CC=C2CC1

> <PUBCHEM_CACTVS_TPSA>
18.5

> <PUBCHEM_MONOISOTOPIC_WEIGHT>
218.13068

> <PUBCHEM_TOTAL_CHARGE>
0

> <PUBCHEM_HEAVY_ATOM_COUNT>
16

> <PUBCHEM_ATOM_DEF_STEREO_COUNT>
0

> <PUBCHEM_ATOM_UDEF_STEREO_COUNT>
0

> <PUBCHEM_BOND_DEF_STEREO_COUNT>
1

> <PUBCHEM_BOND_UDEF_STEREO_COUNT>
0

> <PUBCHEM_ISOTOPIC_ATOM_COUNT>
0

> <PUBCHEM_COMPONENT_COUNT>
1

> <PUBCHEM_CACTVS_TAUTO_COUNT>
1

> <PUBCHEM_COORDINATE_TYPE>
1

> <PUBCHEM_BONDANNOTATIONS>
11  13  8

$$$$
