58694713
  CDK     1213141750

 63 67  0  0  0  0  0  0  0  0999 V2000
    2.0000    5.9470    0.0000 F   0  0  0  0  0  0  0  0  0  0  0  0
    8.9282   -0.0530    0.0000 O   0  0  0  0  0  0  0  0  0  0  0  0
    4.5981    2.4470    0.0000 O   0  0  0  0  0  0  0  0  0  0  0  0
    8.0622   -3.5530    0.0000 N   0  0  0  0  0  0  0  0  0  0  0  0
    7.1962   -0.0530    0.0000 N   0  0  0  0  0  0  0  0  0  0  0  0
    7.1962   -5.0530    0.0000 N   0  0  0  0  0  0  0  0  0  0  0  0
    9.8744   -6.3577    0.0000 N   0  0  0  0  0  0  0  0  0  0  0  0
    8.0622   -6.5530    0.0000 N   0  0  0  0  0  0  0  0  0  0  0  0
    5.4641    3.9470    0.0000 N   0  0  0  0  0  0  0  0  0  0  0  0
    8.0622   -1.5530    0.0000 C   0  0  0  0  0  0  0  0  0  0  0  0
    8.9282   -2.0530    0.0000 C   0  0  0  0  0  0  0  0  0  0  0  0
    7.1962   -2.0530    0.0000 C   0  0  0  0  0  0  0  0  0  0  0  0
    8.9282   -3.0530    0.0000 C   0  0  0  0  0  0  0  0  0  0  0  0
    7.1962   -3.0530    0.0000 C   0  0  0  0  0  0  0  0  0  0  0  0
    8.0622   -0.5530    0.0000 C   0  0  0  0  0  0  0  0  0  0  0  0
    8.0622   -4.5530    0.0000 C   0  0  0  0  0  0  0  0  0  0  0  0
    8.9282   -5.0530    0.0000 C   0  0  0  0  0  0  0  0  0  0  0  0
    9.8744   -4.7482    0.0000 C   0  0  0  0  0  0  0  0  0  0  0  0
    8.9282   -6.0530    0.0000 C   0  0  0  0  0  0  0  0  0  0  0  0
    7.1962    0.9470    0.0000 C   0  0  0  0  0  0  0  0  0  0  0  0
   10.4580   -5.5530    0.0000 C   0  0  0  0  0  0  0  0  0  0  0  0
    7.1962   -6.0530    0.0000 C   0  0  0  0  0  0  0  0  0  0  0  0
   10.1851   -3.7977    0.0000 C   0  0  0  0  0  0  0  0  0  0  0  0
    6.3301    1.4470    0.0000 C   0  0  0  0  0  0  0  0  0  0  0  0
    8.0622    1.4470    0.0000 C   0  0  0  0  0  0  0  0  0  0  0  0
    6.3301    2.4470    0.0000 C   0  0  0  0  0  0  0  0  0  0  0  0
    8.0622    2.4470    0.0000 C   0  0  0  0  0  0  0  0  0  0  0  0
    7.1962    2.9470    0.0000 C   0  0  0  0  0  0  0  0  0  0  0  0
    5.4641    2.9470    0.0000 C   0  0  0  0  0  0  0  0  0  0  0  0
    4.5981    4.4470    0.0000 C   0  0  0  0  0  0  0  0  0  0  0  0
    4.5981    5.4470    0.0000 C   0  0  0  0  0  0  0  0  0  0  0  0
    3.7320    3.9470    0.0000 C   0  0  0  0  0  0  0  0  0  0  0  0
    3.7320    5.9470    0.0000 C   0  0  0  0  0  0  0  0  0  0  0  0
    2.8660    4.4470    0.0000 C   0  0  0  0  0  0  0  0  0  0  0  0
    2.8660    5.4470    0.0000 C   0  0  0  0  0  0  0  0  0  0  0  0
    3.7320    6.9470    0.0000 C   0  0  0  0  0  0  0  0  0  0  0  0
    7.5252   -1.2430    0.0000 H   0  0  0  0  0  0  0  0  0  0  0  0
    6.9841   -1.4704    0.0000 H   0  0  0  0  0  0  0  0  0  0  0  0
    6.5856   -2.1606    0.0000 H   0  0  0  0  0  0  0  0  0  0  0  0
    9.5388   -2.1606    0.0000 H   0  0  0  0  0  0  0  0  0  0  0  0
    9.1403   -1.4704    0.0000 H   0  0  0  0  0  0  0  0  0  0  0  0
    6.5856   -2.9453    0.0000 H   0  0  0  0  0  0  0  0  0  0  0  0
    6.9841   -3.6356    0.0000 H   0  0  0  0  0  0  0  0  0  0  0  0
    9.1403   -3.6356    0.0000 H   0  0  0  0  0  0  0  0  0  0  0  0
    9.5388   -2.9453    0.0000 H   0  0  0  0  0  0  0  0  0  0  0  0
    6.6592   -0.3630    0.0000 H   0  0  0  0  0  0  0  0  0  0  0  0
   11.0780   -5.5530    0.0000 H   0  0  0  0  0  0  0  0  0  0  0  0
   10.0670   -6.9470    0.0000 H   0  0  0  0  0  0  0  0  0  0  0  0
    6.6592   -6.3630    0.0000 H   0  0  0  0  0  0  0  0  0  0  0  0
   10.7744   -3.9903    0.0000 H   0  0  0  0  0  0  0  0  0  0  0  0
   10.3777   -3.2084    0.0000 H   0  0  0  0  0  0  0  0  0  0  0  0
    9.5958   -3.6051    0.0000 H   0  0  0  0  0  0  0  0  0  0  0  0
    5.7932    1.1370    0.0000 H   0  0  0  0  0  0  0  0  0  0  0  0
    8.5991    1.1370    0.0000 H   0  0  0  0  0  0  0  0  0  0  0  0
    8.5991    2.7570    0.0000 H   0  0  0  0  0  0  0  0  0  0  0  0
    7.1962    3.5670    0.0000 H   0  0  0  0  0  0  0  0  0  0  0  0
    6.0010    4.2570    0.0000 H   0  0  0  0  0  0  0  0  0  0  0  0
    5.1350    5.7570    0.0000 H   0  0  0  0  0  0  0  0  0  0  0  0
    3.7320    3.3270    0.0000 H   0  0  0  0  0  0  0  0  0  0  0  0
    2.3291    4.1370    0.0000 H   0  0  0  0  0  0  0  0  0  0  0  0
    4.3520    6.9470    0.0000 H   0  0  0  0  0  0  0  0  0  0  0  0
    3.7320    7.5670    0.0000 H   0  0  0  0  0  0  0  0  0  0  0  0
    3.1120    6.9470    0.0000 H   0  0  0  0  0  0  0  0  0  0  0  0
  1 35  1  0  0  0  0 
  2 15  2  0  0  0  0 
  3 29  2  0  0  0  0 
  4 13  1  0  0  0  0 
  4 14  1  0  0  0  0 
  4 16  1  0  0  0  0 
  5 15  1  0  0  0  0 
  5 20  1  0  0  0  0 
  5 46  1  0  0  0  0 
  6 16  2  0  0  0  0 
  6 22  1  0  0  0  0 
  7 19  1  0  0  0  0 
  7 21  1  0  0  0  0 
  7 48  1  0  0  0  0 
  8 19  1  0  0  0  0 
  8 22  2  0  0  0  0 
  9 29  1  0  0  0  0 
  9 30  1  0  0  0  0 
  9 57  1  0  0  0  0 
 10 11  1  0  0  0  0 
 10 12  1  0  0  0  0 
 10 15  1  0  0  0  0 
 10 37  1  0  0  0  0 
 11 13  1  0  0  0  0 
 11 40  1  0  0  0  0 
 11 41  1  0  0  0  0 
 12 14  1  0  0  0  0 
 12 38  1  0  0  0  0 
 12 39  1  0  0  0  0 
 13 44  1  0  0  0  0 
 13 45  1  0  0  0  0 
 14 42  1  0  0  0  0 
 14 43  1  0  0  0  0 
 16 17  1  0  0  0  0 
 17 18  1  0  0  0  0 
 17 19  2  0  0  0  0 
 18 21  2  0  0  0  0 
 18 23  1  0  0  0  0 
 20 24  1  0  0  0  0 
 20 25  2  0  0  0  0 
 21 47  1  0  0  0  0 
 22 49  1  0  0  0  0 
 23 50  1  0  0  0  0 
 23 51  1  0  0  0  0 
 23 52  1  0  0  0  0 
 24 26  2  0  0  0  0 
 24 53  1  0  0  0  0 
 25 27  1  0  0  0  0 
 25 54  1  0  0  0  0 
 26 28  1  0  0  0  0 
 26 29  1  0  0  0  0 
 27 28  2  0  0  0  0 
 27 55  1  0  0  0  0 
 28 56  1  0  0  0  0 
 30 31  2  0  0  0  0 
 30 32  1  0  0  0  0 
 31 33  1  0  0  0  0 
 31 58  1  0  0  0  0 
 32 34  2  0  0  0  0 
 32 59  1  0  0  0  0 
 33 35  2  0  0  0  0 
 33 36  1  0  0  0  0 
 34 35  1  0  0  0  0 
 34 60  1  0  0  0  0 
 36 61  1  0  0  0  0 
 36 62  1  0  0  0  0 
 36 63  1  0  0  0  0 
M  END
> <cdk:Title>
58694713

> <cdk:Remark>
null

> <PUBCHEM_COMPOUND_CID>
58694713

> <PUBCHEM_COMPOUND_CANONICALIZED>
1

> <PUBCHEM_CACTVS_COMPLEXITY>
777

> <PUBCHEM_CACTVS_HBOND_ACCEPTOR>
6

> <PUBCHEM_CACTVS_HBOND_DONOR>
3

> <PUBCHEM_CACTVS_ROTATABLE_BOND>
5

> <PUBCHEM_CACTVS_SUBSKEYS>
AAADceB7sQAAAAAAAAAAAAAAAAAAAWAAAAA8eIEAAAAAAFgB/AAAHwAQAAAADQjBmww/8N/JkACoAjd3dACCgCm1AqAJ2aEoZNiIKHLA3dGEJQholALIyacciACOgAAAQAAAAAAAAACAAAAAAAAAAAAAAA==

> <PUBCHEM_IUPAC_OPENEYE_NAME>
N-[3-[(4-fluoro-3-methyl-phenyl)carbamoyl]phenyl]-1-(5-methyl-7H-pyrrolo[2,3-d]pyrimidin-4-yl)piperidine-4-carboxamide

> <PUBCHEM_IUPAC_CAS_NAME>
N-[3-[(4-fluoro-3-methylanilino)-oxomethyl]phenyl]-1-(5-methyl-7H-pyrrolo[2,3-d]pyrimidin-4-yl)-4-piperidinecarboxamide

> <PUBCHEM_IUPAC_NAME>
N-[3-[(4-fluoro-3-methylphenyl)carbamoyl]phenyl]-1-(5-methyl-7H-pyrrolo[2,3-d]pyrimidin-4-yl)piperidine-4-carboxamide

> <PUBCHEM_IUPAC_SYSTEMATIC_NAME>
N-[3-[(4-fluoranyl-3-methyl-phenyl)carbamoyl]phenyl]-1-(5-methyl-7H-pyrrolo[2,3-d]pyrimidin-4-yl)piperidine-4-carboxamide

> <PUBCHEM_IUPAC_TRADITIONAL_NAME>
N-[3-[(4-fluoro-3-methyl-phenyl)carbamoyl]phenyl]-1-(5-methyl-7H-pyrrolo[2,3-d]pyrimidin-4-yl)isonipecotamide

> <PUBCHEM_IUPAC_INCHI>
InChI=1S/C27H27FN6O2/c1-16-12-21(6-7-22(16)28)33-27(36)19-4-3-5-20(13-19)32-26(35)18-8-10-34(11-9-18)25-23-17(2)14-29-24(23)30-15-31-25/h3-7,12-15,18H,8-11H2,1-2H3,(H,32,35)(H,33,36)(H,29,30,31)

> <PUBCHEM_IUPAC_INCHIKEY>
PCJXEDUELQAVFX-UHFFFAOYSA-N

> <PUBCHEM_XLOGP3_AA>
4.1

> <PUBCHEM_EXACT_MASS>
486.217952

> <PUBCHEM_MOLECULAR_FORMULA>
C27H27FN6O2

> <PUBCHEM_MOLECULAR_WEIGHT>
486.540683

> <PUBCHEM_OPENEYE_CAN_SMILES>
CC1=C(C=CC(=C1)NC(=O)C2=CC(=CC=C2)NC(=O)C3CCN(CC3)C4=NC=NC5=C4C(=CN5)C)F

> <PUBCHEM_OPENEYE_ISO_SMILES>
CC1=C(C=CC(=C1)NC(=O)C2=CC(=CC=C2)NC(=O)C3CCN(CC3)C4=NC=NC5=C4C(=CN5)C)F

> <PUBCHEM_CACTVS_TPSA>
103

> <PUBCHEM_MONOISOTOPIC_WEIGHT>
486.217952

> <PUBCHEM_TOTAL_CHARGE>
0

> <PUBCHEM_HEAVY_ATOM_COUNT>
36

> <PUBCHEM_ATOM_DEF_STEREO_COUNT>
0

> <PUBCHEM_ATOM_UDEF_STEREO_COUNT>
0

> <PUBCHEM_BOND_DEF_STEREO_COUNT>
0

> <PUBCHEM_BOND_UDEF_STEREO_COUNT>
0

> <PUBCHEM_ISOTOPIC_ATOM_COUNT>
0

> <PUBCHEM_COMPONENT_COUNT>
1

> <PUBCHEM_CACTVS_TAUTO_COUNT>
18

> <PUBCHEM_COORDINATE_TYPE>
1

> <PUBCHEM_BONDANNOTATIONS>
16  17  8

$$$$
58694713
  CDK     1213141750

 63 67  0  0  0  0  0  0  0  0999 V2000
    2.0000    5.9470    0.0000 F   0  0  0  0  0  0  0  0  0  0  0  0
    8.9282   -0.0530    0.0000 O   0  0  0  0  0  0  0  0  0  0  0  0
    4.5981    2.4470    0.0000 O   0  0  0  0  0  0  0  0  0  0  0  0
    8.0622   -3.5530    0.0000 N   0  0  0  0  0  0  0  0  0  0  0  0
    7.1962   -0.0530    0.0000 N   0  0  0  0  0  0  0  0  0  0  0  0
    7.1962   -5.0530    0.0000 N   0  0  0  0  0  0  0  0  0  0  0  0
    9.8744   -6.3577    0.0000 N   0  0  0  0  0  0  0  0  0  0  0  0
    8.0622   -6.5530    0.0000 N   0  0  0  0  0  0  0  0  0  0  0  0
    5.4641    3.9470    0.0000 N   0  0  0  0  0  0  0  0  0  0  0  0
    8.0622   -1.5530    0.0000 C   0  0  0  0  0  0  0  0  0  0  0  0
    8.9282   -2.0530    0.0000 C   0  0  0  0  0  0  0  0  0  0  0  0
    7.1962   -2.0530    0.0000 C   0  0  0  0  0  0  0  0  0  0  0  0
    8.9282   -3.0530    0.0000 C   0  0  0  0  0  0  0  0  0  0  0  0
    7.1962   -3.0530    0.0000 C   0  0  0  0  0  0  0  0  0  0  0  0
    8.0622   -0.5530    0.0000 C   0  0  0  0  0  0  0  0  0  0  0  0
    8.0622   -4.5530    0.0000 C   0  0  0  0  0  0  0  0  0  0  0  0
    8.9282   -5.0530    0.0000 C   0  0  0  0  0  0  0  0  0  0  0  0
    9.8744   -4.7482    0.0000 C   0  0  0  0  0  0  0  0  0  0  0  0
    8.9282   -6.0530    0.0000 C   0  0  0  0  0  0  0  0  0  0  0  0
    7.1962    0.9470    0.0000 C   0  0  0  0  0  0  0  0  0  0  0  0
   10.4580   -5.5530    0.0000 C   0  0  0  0  0  0  0  0  0  0  0  0
    7.1962   -6.0530    0.0000 C   0  0  0  0  0  0  0  0  0  0  0  0
   10.1851   -3.7977    0.0000 C   0  0  0  0  0  0  0  0  0  0  0  0
    6.3301    1.4470    0.0000 C   0  0  0  0  0  0  0  0  0  0  0  0
    8.0622    1.4470    0.0000 C   0  0  0  0  0  0  0  0  0  0  0  0
    6.3301    2.4470    0.0000 C   0  0  0  0  0  0  0  0  0  0  0  0
    8.0622    2.4470    0.0000 C   0  0  0  0  0  0  0  0  0  0  0  0
    7.1962    2.9470    0.0000 C   0  0  0  0  0  0  0  0  0  0  0  0
    5.4641    2.9470    0.0000 C   0  0  0  0  0  0  0  0  0  0  0  0
    4.5981    4.4470    0.0000 C   0  0  0  0  0  0  0  0  0  0  0  0
    4.5981    5.4470    0.0000 C   0  0  0  0  0  0  0  0  0  0  0  0
    3.7320    3.9470    0.0000 C   0  0  0  0  0  0  0  0  0  0  0  0
    3.7320    5.9470    0.0000 C   0  0  0  0  0  0  0  0  0  0  0  0
    2.8660    4.4470    0.0000 C   0  0  0  0  0  0  0  0  0  0  0  0
    2.8660    5.4470    0.0000 C   0  0  0  0  0  0  0  0  0  0  0  0
    3.7320    6.9470    0.0000 C   0  0  0  0  0  0  0  0  0  0  0  0
    7.5252   -1.2430    0.0000 H   0  0  0  0  0  0  0  0  0  0  0  0
    6.9841   -1.4704    0.0000 H   0  0  0  0  0  0  0  0  0  0  0  0
    6.5856   -2.1606    0.0000 H   0  0  0  0  0  0  0  0  0  0  0  0
    9.5388   -2.1606    0.0000 H   0  0  0  0  0  0  0  0  0  0  0  0
    9.1403   -1.4704    0.0000 H   0  0  0  0  0  0  0  0  0  0  0  0
    6.5856   -2.9453    0.0000 H   0  0  0  0  0  0  0  0  0  0  0  0
    6.9841   -3.6356    0.0000 H   0  0  0  0  0  0  0  0  0  0  0  0
    9.1403   -3.6356    0.0000 H   0  0  0  0  0  0  0  0  0  0  0  0
    9.5388   -2.9453    0.0000 H   0  0  0  0  0  0  0  0  0  0  0  0
    6.6592   -0.3630    0.0000 H   0  0  0  0  0  0  0  0  0  0  0  0
   11.0780   -5.5530    0.0000 H   0  0  0  0  0  0  0  0  0  0  0  0
   10.0670   -6.9470    0.0000 H   0  0  0  0  0  0  0  0  0  0  0  0
    6.6592   -6.3630    0.0000 H   0  0  0  0  0  0  0  0  0  0  0  0
   10.7744   -3.9903    0.0000 H   0  0  0  0  0  0  0  0  0  0  0  0
   10.3777   -3.2084    0.0000 H   0  0  0  0  0  0  0  0  0  0  0  0
    9.5958   -3.6051    0.0000 H   0  0  0  0  0  0  0  0  0  0  0  0
    5.7932    1.1370    0.0000 H   0  0  0  0  0  0  0  0  0  0  0  0
    8.5991    1.1370    0.0000 H   0  0  0  0  0  0  0  0  0  0  0  0
    8.5991    2.7570    0.0000 H   0  0  0  0  0  0  0  0  0  0  0  0
    7.1962    3.5670    0.0000 H   0  0  0  0  0  0  0  0  0  0  0  0
    6.0010    4.2570    0.0000 H   0  0  0  0  0  0  0  0  0  0  0  0
    5.1350    5.7570    0.0000 H   0  0  0  0  0  0  0  0  0  0  0  0
    3.7320    3.3270    0.0000 H   0  0  0  0  0  0  0  0  0  0  0  0
    2.3291    4.1370    0.0000 H   0  0  0  0  0  0  0  0  0  0  0  0
    4.3520    6.9470    0.0000 H   0  0  0  0  0  0  0  0  0  0  0  0
    3.7320    7.5670    0.0000 H   0  0  0  0  0  0  0  0  0  0  0  0
    3.1120    6.9470    0.0000 H   0  0  0  0  0  0  0  0  0  0  0  0
  1 35  1  0  0  0  0 
  2 15  2  0  0  0  0 
  3 29  2  0  0  0  0 
  4 13  1  0  0  0  0 
  4 14  1  0  0  0  0 
  4 16  1  0  0  0  0 
  5 15  1  0  0  0  0 
  5 20  1  0  0  0  0 
  5 46  1  0  0  0  0 
  6 16  2  0  0  0  0 
  6 22  1  0  0  0  0 
  7 19  1  0  0  0  0 
  7 21  1  0  0  0  0 
  7 48  1  0  0  0  0 
  8 19  1  0  0  0  0 
  8 22  2  0  0  0  0 
  9 29  1  0  0  0  0 
  9 30  1  0  0  0  0 
  9 57  1  0  0  0  0 
 10 11  1  0  0  0  0 
 10 12  1  0  0  0  0 
 10 15  1  0  0  0  0 
 10 37  1  0  0  0  0 
 11 13  1  0  0  0  0 
 11 40  1  0  0  0  0 
 11 41  1  0  0  0  0 
 12 14  1  0  0  0  0 
 12 38  1  0  0  0  0 
 12 39  1  0  0  0  0 
 13 44  1  0  0  0  0 
 13 45  1  0  0  0  0 
 14 42  1  0  0  0  0 
 14 43  1  0  0  0  0 
 16 17  1  0  0  0  0 
 17 18  1  0  0  0  0 
 17 19  2  0  0  0  0 
 18 21  2  0  0  0  0 
 18 23  1  0  0  0  0 
 20 24  1  0  0  0  0 
 20 25  2  0  0  0  0 
 21 47  1  0  0  0  0 
 22 49  1  0  0  0  0 
 23 50  1  0  0  0  0 
 23 51  1  0  0  0  0 
 23 52  1  0  0  0  0 
 24 26  2  0  0  0  0 
 24 53  1  0  0  0  0 
 25 27  1  0  0  0  0 
 25 54  1  0  0  0  0 
 26 28  1  0  0  0  0 
 26 29  1  0  0  0  0 
 27 28  2  0  0  0  0 
 27 55  1  0  0  0  0 
 28 56  1  0  0  0  0 
 30 31  2  0  0  0  0 
 30 32  1  0  0  0  0 
 31 33  1  0  0  0  0 
 31 58  1  0  0  0  0 
 32 34  2  0  0  0  0 
 32 59  1  0  0  0  0 
 33 35  2  0  0  0  0 
 33 36  1  0  0  0  0 
 34 35  1  0  0  0  0 
 34 60  1  0  0  0  0 
 36 61  1  0  0  0  0 
 36 62  1  0  0  0  0 
 36 63  1  0  0  0  0 
M  END
> <cdk:Title>
58694713

> <cdk:Remark>
null

> <PUBCHEM_COMPOUND_CID>
58694713

> <PUBCHEM_COMPOUND_CANONICALIZED>
1

> <PUBCHEM_CACTVS_COMPLEXITY>
777

> <PUBCHEM_CACTVS_HBOND_ACCEPTOR>
6

> <PUBCHEM_CACTVS_HBOND_DONOR>
3

> <PUBCHEM_CACTVS_ROTATABLE_BOND>
5

> <PUBCHEM_CACTVS_SUBSKEYS>
AAADceB7sQAAAAAAAAAAAAAAAAAAAWAAAAA8eIEAAAAAAFgB/AAAHwAQAAAADQjBmww/8N/JkACoAjd3dACCgCm1AqAJ2aEoZNiIKHLA3dGEJQholALIyacciACOgAAAQAAAAAAAAACAAAAAAAAAAAAAAA==

> <PUBCHEM_IUPAC_OPENEYE_NAME>
N-[3-[(4-fluoro-3-methyl-phenyl)carbamoyl]phenyl]-1-(5-methyl-7H-pyrrolo[2,3-d]pyrimidin-4-yl)piperidine-4-carboxamide

> <PUBCHEM_IUPAC_CAS_NAME>
N-[3-[(4-fluoro-3-methylanilino)-oxomethyl]phenyl]-1-(5-methyl-7H-pyrrolo[2,3-d]pyrimidin-4-yl)-4-piperidinecarboxamide

> <PUBCHEM_IUPAC_NAME>
N-[3-[(4-fluoro-3-methylphenyl)carbamoyl]phenyl]-1-(5-methyl-7H-pyrrolo[2,3-d]pyrimidin-4-yl)piperidine-4-carboxamide

> <PUBCHEM_IUPAC_SYSTEMATIC_NAME>
N-[3-[(4-fluoranyl-3-methyl-phenyl)carbamoyl]phenyl]-1-(5-methyl-7H-pyrrolo[2,3-d]pyrimidin-4-yl)piperidine-4-carboxamide

> <PUBCHEM_IUPAC_TRADITIONAL_NAME>
N-[3-[(4-fluoro-3-methyl-phenyl)carbamoyl]phenyl]-1-(5-methyl-7H-pyrrolo[2,3-d]pyrimidin-4-yl)isonipecotamide

> <PUBCHEM_IUPAC_INCHI>
InChI=1S/C27H27FN6O2/c1-16-12-21(6-7-22(16)28)33-27(36)19-4-3-5-20(13-19)32-26(35)18-8-10-34(11-9-18)25-23-17(2)14-29-24(23)30-15-31-25/h3-7,12-15,18H,8-11H2,1-2H3,(H,32,35)(H,33,36)(H,29,30,31)

> <PUBCHEM_IUPAC_INCHIKEY>
PCJXEDUELQAVFX-UHFFFAOYSA-N

> <PUBCHEM_XLOGP3_AA>
4.1

> <PUBCHEM_EXACT_MASS>
486.217952

> <PUBCHEM_MOLECULAR_FORMULA>
C27H27FN6O2

> <PUBCHEM_MOLECULAR_WEIGHT>
486.540683

> <PUBCHEM_OPENEYE_CAN_SMILES>
CC1=C(C=CC(=C1)NC(=O)C2=CC(=CC=C2)NC(=O)C3CCN(CC3)C4=NC=NC5=C4C(=CN5)C)F

> <PUBCHEM_OPENEYE_ISO_SMILES>
CC1=C(C=CC(=C1)NC(=O)C2=CC(=CC=C2)NC(=O)C3CCN(CC3)C4=NC=NC5=C4C(=CN5)C)F

> <PUBCHEM_CACTVS_TPSA>
103

> <PUBCHEM_MONOISOTOPIC_WEIGHT>
486.217952

> <PUBCHEM_TOTAL_CHARGE>
0

> <PUBCHEM_HEAVY_ATOM_COUNT>
36

> <PUBCHEM_ATOM_DEF_STEREO_COUNT>
0

> <PUBCHEM_ATOM_UDEF_STEREO_COUNT>
0

> <PUBCHEM_BOND_DEF_STEREO_COUNT>
0

> <PUBCHEM_BOND_UDEF_STEREO_COUNT>
0

> <PUBCHEM_ISOTOPIC_ATOM_COUNT>
0

> <PUBCHEM_COMPONENT_COUNT>
1

> <PUBCHEM_CACTVS_TAUTO_COUNT>
18

> <PUBCHEM_COORDINATE_TYPE>
1

> <PUBCHEM_BONDANNOTATIONS>
16  17  8

$$$$
