
  CDK     0224152114

  9 10  0  0  0  0  0  0  0  0999 V2000
    6.0812    2.1598    0.0000 N   0  0  0  0  0  0  0  0  0  0  0  0
    6.0812    0.5503    0.0000 N   0  0  0  0  0  0  0  0  0  0  0  0
    6.6648    1.3551    0.0000 C   0  0  0  0  0  0  0  0  0  0  0  0
    5.1350    1.8551    0.0000 C   0  0  0  0  0  0  0  0  0  0  0  0
    5.1350    0.8551    0.0000 C   0  0  0  0  0  0  0  0  0  0  0  0
    4.2690    2.3551    0.0000 C   0  0  0  0  0  0  0  0  0  0  0  0
    4.2690    0.3551    0.0000 C   0  0  0  0  0  0  0  0  0  0  0  0
    3.4030    1.8551    0.0000 C   0  0  0  0  0  0  0  0  0  0  0  0
    3.4030    0.8551    0.0000 C   0  0  0  0  0  0  0  0  0  0  0  0
  1  3  1  0  0  0  0 
  1  4  1  0  0  0  0 
  2  3  1  0  0  0  0 
  2  5  1  0  0  0  0 
  4  5  1  0  0  0  0 
  4  6  1  0  0  0  0 
  5  7  1  0  0  0  0 
  6  8  1  0  0  0  0 
  7  9  1  0  0  0  0 
  8  9  1  0  0  0  0 
M  END
> <PUBCHEM_COMPOUND_CID>
61367128

$$$$
