61374959
  CDK     1229141544

 24 24  0  0  0  0  0  0  0  0999 V2000
    2.8090    1.3565    0.0000 S   0  0  0  0  0  0  0  0  0  0  0  0
    6.4712    1.0172    0.0000 O   0  0  0  0  0  0  0  0  0  0  0  0
    4.7770    0.6571    0.0000 N   0  0  0  0  0  0  0  0  0  0  0  0
    6.8870   -0.9391    0.0000 N   0  0  0  0  0  0  0  0  0  0  0  0
    7.0949   -1.9172    0.0000 N   0  0  0  0  0  0  0  0  0  0  0  0
    7.3028   -2.8954    0.0000 N   0  0  0  0  0  0  0  0  0  0  0  0
    4.5691    1.6353    0.0000 C   0  0  0  0  0  0  0  0  0  0  0  0
    3.6180    1.9443    0.0000 C   0  0  0  0  0  0  0  0  0  0  0  0
    5.7281    0.3481    0.0000 C   0  0  0  0  0  0  0  0  0  0  0  0
    4.0339   -0.0120    0.0000 C   0  0  0  0  0  0  0  0  0  0  0  0
    3.3090    2.8954    0.0000 C   0  0  0  0  0  0  0  0  0  0  0  0
    5.9360   -0.6300    0.0000 C   0  0  0  0  0  0  0  0  0  0  0  0
    2.3090    2.8954    0.0000 C   0  0  0  0  0  0  0  0  0  0  0  0
    2.0000    1.9443    0.0000 C   0  0  0  0  0  0  0  0  0  0  0  0
    5.1887    1.6569    0.0000 H   0  0  0  0  0  0  0  0  0  0  0  0
    4.6554    2.2492    0.0000 H   0  0  0  0  0  0  0  0  0  0  0  0
    3.6190    0.4487    0.0000 H   0  0  0  0  0  0  0  0  0  0  0  0
    3.5731   -0.4269    0.0000 H   0  0  0  0  0  0  0  0  0  0  0  0
    4.4487   -0.4728    0.0000 H   0  0  0  0  0  0  0  0  0  0  0  0
    3.6734    3.3969    0.0000 H   0  0  0  0  0  0  0  0  0  0  0  0
    5.3164   -0.6517    0.0000 H   0  0  0  0  0  0  0  0  0  0  0  0
    5.8497   -1.2440    0.0000 H   0  0  0  0  0  0  0  0  0  0  0  0
    1.9446    3.3969    0.0000 H   0  0  0  0  0  0  0  0  0  0  0  0
    1.4103    1.7527    0.0000 H   0  0  0  0  0  0  0  0  0  0  0  0
  1  8  1  0  0  0  0 
  1 14  1  0  0  0  0 
  2  9  2  0  0  0  0 
  3  7  1  0  0  0  0 
  3  9  1  0  0  0  0 
  3 10  1  0  0  0  0 
  4  5  2  0  0  0  0 
  4 12  1  0  0  0  0 
  5  6  2  0  0  0  0 
  7  8  1  0  0  0  0 
  7 15  1  0  0  0  0 
  7 16  1  0  0  0  0 
  8 11  2  0  0  0  0 
  9 12  1  0  0  0  0 
 10 17  1  0  0  0  0 
 10 18  1  0  0  0  0 
 10 19  1  0  0  0  0 
 11 13  1  0  0  0  0 
 11 20  1  0  0  0  0 
 12 21  1  0  0  0  0 
 12 22  1  0  0  0  0 
 13 14  2  0  0  0  0 
 13 23  1  0  0  0  0 
 14 24  1  0  0  0  0 
M  CHG  1   5   1
M  CHG  1   6  -1
M  END
> <cdk:Title>
61374959

> <cdk:Remark>
null

> <PUBCHEM_COMPOUND_CID>
61374959

> <PUBCHEM_COMPOUND_CANONICALIZED>
1

> <PUBCHEM_CACTVS_COMPLEXITY>
252

> <PUBCHEM_CACTVS_HBOND_ACCEPTOR>
4

> <PUBCHEM_CACTVS_HBOND_DONOR>
0

> <PUBCHEM_CACTVS_ROTATABLE_BOND>
4

> <PUBCHEM_CACTVS_SUBSKEYS>
AAADccBzoABAAAAAAAAAAAAAAAAAASAAAAAAAAAAAAAAAAABgAAAHgQIAAAACADF0ASyAYMAAAiOACFSEACDAIAgCBBIiBiIBIgIYCKgkRGUAAhghgCoiAYQAAAAAAAAAAAAAAAAAAAAAAAAAAAAAAAAAA==

> <PUBCHEM_IUPAC_OPENEYE_NAME>
2-azido-N-methyl-N-(2-thienylmethyl)acetamide

> <PUBCHEM_IUPAC_CAS_NAME>
2-azido-N-methyl-N-(thiophen-2-ylmethyl)acetamide

> <PUBCHEM_IUPAC_NAME>
2-azido-N-methyl-N-(thiophen-2-ylmethyl)acetamide

> <PUBCHEM_IUPAC_SYSTEMATIC_NAME>
2-azido-N-methyl-N-(thiophen-2-ylmethyl)ethanamide

> <PUBCHEM_IUPAC_TRADITIONAL_NAME>
2-azido-N-methyl-N-(2-thenyl)acetamide

> <PUBCHEM_IUPAC_INCHI>
InChI=1S/C8H10N4OS/c1-12(8(13)5-10-11-9)6-7-3-2-4-14-7/h2-4H,5-6H2,1H3

> <PUBCHEM_IUPAC_INCHIKEY>
NCHKJYNNFDAEQV-UHFFFAOYSA-N

> <PUBCHEM_XLOGP3_AA>
2

> <PUBCHEM_EXACT_MASS>
210.057532

> <PUBCHEM_MOLECULAR_FORMULA>
C8H10N4OS

> <PUBCHEM_MOLECULAR_WEIGHT>
210.2562

> <PUBCHEM_OPENEYE_CAN_SMILES>
CN(CC1=CC=CS1)C(=O)CN=[N+]=[N-]

> <PUBCHEM_OPENEYE_ISO_SMILES>
CN(CC1=CC=CS1)C(=O)CN=[N+]=[N-]

> <PUBCHEM_CACTVS_TPSA>
62.9

> <PUBCHEM_MONOISOTOPIC_WEIGHT>
210.057532

> <PUBCHEM_TOTAL_CHARGE>
0

> <PUBCHEM_HEAVY_ATOM_COUNT>
14

> <PUBCHEM_ATOM_DEF_STEREO_COUNT>
0

> <PUBCHEM_ATOM_UDEF_STEREO_COUNT>
0

> <PUBCHEM_BOND_DEF_STEREO_COUNT>
0

> <PUBCHEM_BOND_UDEF_STEREO_COUNT>
0

> <PUBCHEM_ISOTOPIC_ATOM_COUNT>
0

> <PUBCHEM_COMPONENT_COUNT>
1

> <PUBCHEM_CACTVS_TAUTO_COUNT>
1

> <PUBCHEM_COORDINATE_TYPE>
1

> <PUBCHEM_BONDANNOTATIONS>
1  14  8

$$$$
54410347
  CDK     1229141544

 31 31  0  0  0  0  0  0  0  0999 V2000
    3.7320    0.2500    0.0000 P   0  0  3  0  0  0  0  0  0  0  0  0
    3.7320    1.2500    0.0000 O   0  0  0  0  0  0  0  0  0  0  0  0
    4.5981   -0.2500    0.0000 O   0  0  0  0  0  0  0  0  0  0  0  0
    4.5981    2.7500    0.0000 C   0  0  0  0  0  0  0  0  0  0  0  0
    4.5981    1.7500    0.0000 C   0  0  0  0  0  0  0  0  0  0  0  0
    5.4641    3.2500    0.0000 C   0  0  0  0  0  0  0  0  0  0  0  0
    3.7320    3.2500    0.0000 C   0  0  0  0  0  0  0  0  0  0  0  0
    2.8660   -0.2500    0.0000 C   0  0  0  0  0  0  0  0  0  0  0  0
    2.8660   -1.2500    0.0000 C   0  0  0  0  0  0  0  0  0  0  0  0
    2.0000   -1.7500    0.0000 C   0  0  0  0  0  0  0  0  0  0  0  0
    3.7320   -1.7500    0.0000 C   0  0  0  0  0  0  0  0  0  0  0  0
    2.0000   -2.7500    0.0000 C   0  0  0  0  0  0  0  0  0  0  0  0
    3.7320   -2.7500    0.0000 C   0  0  0  0  0  0  0  0  0  0  0  0
    2.8660   -3.2500    0.0000 C   0  0  0  0  0  0  0  0  0  0  0  0
    4.5981    3.3700    0.0000 H   0  0  0  0  0  0  0  0  0  0  0  0
    4.8101    1.1674    0.0000 H   0  0  0  0  0  0  0  0  0  0  0  0
    5.2087    1.8577    0.0000 H   0  0  0  0  0  0  0  0  0  0  0  0
    5.7741    2.7131    0.0000 H   0  0  0  0  0  0  0  0  0  0  0  0
    6.0010    3.5600    0.0000 H   0  0  0  0  0  0  0  0  0  0  0  0
    4.0420    3.7869    0.0000 H   0  0  0  0  0  0  0  0  0  0  0  0
    3.1951    3.5600    0.0000 H   0  0  0  0  0  0  0  0  0  0  0  0
    3.4220    2.7131    0.0000 H   0  0  0  0  0  0  0  0  0  0  0  0
    5.1541    3.7869    0.0000 H   0  0  0  0  0  0  0  0  0  0  0  0
    2.6540    0.3326    0.0000 H   0  0  0  0  0  0  0  0  0  0  0  0
    2.2554   -0.3577    0.0000 H   0  0  0  0  0  0  0  0  0  0  0  0
    1.4631   -1.4400    0.0000 H   0  0  0  0  0  0  0  0  0  0  0  0
    4.2690   -1.4400    0.0000 H   0  0  0  0  0  0  0  0  0  0  0  0
    1.4631   -3.0600    0.0000 H   0  0  0  0  0  0  0  0  0  0  0  0
    4.2690   -3.0600    0.0000 H   0  0  0  0  0  0  0  0  0  0  0  0
    2.8660   -3.8700    0.0000 H   0  0  0  0  0  0  0  0  0  0  0  0
    5.1350    0.0600    0.0000 H   0  0  0  0  0  0  0  0  0  0  0  0
  1  2  1  0  0  0  0 
  1  3  1  0  0  0  0 
  1  8  1  0  0  0  0 
  2  5  1  0  0  0  0 
  3 31  1  0  0  0  0 
  4  5  1  0  0  0  0 
  4  6  1  0  0  0  0 
  4  7  1  0  0  0  0 
  4 15  1  0  0  0  0 
  5 16  1  0  0  0  0 
  5 17  1  0  0  0  0 
  6 18  1  0  0  0  0 
  6 19  1  0  0  0  0 
  6 23  1  0  0  0  0 
  7 20  1  0  0  0  0 
  7 21  1  0  0  0  0 
  7 22  1  0  0  0  0 
  8  9  1  0  0  0  0 
  8 24  1  0  0  0  0 
  8 25  1  0  0  0  0 
  9 10  2  0  0  0  0 
  9 11  1  0  0  0  0 
 10 12  1  0  0  0  0 
 10 26  1  0  0  0  0 
 11 13  2  0  0  0  0 
 11 27  1  0  0  0  0 
 12 14  2  0  0  0  0 
 12 28  1  0  0  0  0 
 13 14  1  0  0  0  0 
 13 29  1  0  0  0  0 
 14 30  1  0  0  0  0 
M  END
> <cdk:Title>
54410347

> <cdk:Remark>
null

> <PUBCHEM_COMPOUND_CID>
54410347

> <PUBCHEM_COMPOUND_CANONICALIZED>
1

> <PUBCHEM_CACTVS_COMPLEXITY>
144

> <PUBCHEM_CACTVS_HBOND_ACCEPTOR>
2

> <PUBCHEM_CACTVS_HBOND_DONOR>
1

> <PUBCHEM_CACTVS_ROTATABLE_BOND>
5

> <PUBCHEM_CACTVS_SUBSKEYS>
AAADceBwMAIAAAAAAAAAAAAAAAAAAAAAAAAwAAAAAAAAAAABAAAAGggACCAADQComAIyAIAAARCAAiBCAAACAAAgAAAIiAAAAIgIICKAERCAIAAggAAIiAcAgAAOAAAAAAAAAAAAAAAAAAAAAAAAAAAAAA==

> <PUBCHEM_IUPAC_OPENEYE_NAME>
benzyl(isobutoxy)phosphinous acid

> <PUBCHEM_IUPAC_CAS_NAME>
2-methylpropoxy-(phenylmethyl)phosphinous acid

> <PUBCHEM_IUPAC_NAME>
benzyl(2-methylpropoxy)phosphinous acid

> <PUBCHEM_IUPAC_SYSTEMATIC_NAME>
2-methylpropoxy-(phenylmethyl)phosphinous acid

> <PUBCHEM_IUPAC_TRADITIONAL_NAME>
benzyl(isobutoxy)phosphinous acid

> <PUBCHEM_IUPAC_INCHI>
InChI=1S/C11H17O2P/c1-10(2)8-13-14(12)9-11-6-4-3-5-7-11/h3-7,10,12H,8-9H2,1-2H3

> <PUBCHEM_IUPAC_INCHIKEY>
VTRGEXLXQQIYMG-UHFFFAOYSA-N

> <PUBCHEM_XLOGP3_AA>
2.3

> <PUBCHEM_EXACT_MASS>
212.096616

> <PUBCHEM_MOLECULAR_FORMULA>
C11H17O2P

> <PUBCHEM_MOLECULAR_WEIGHT>
212.225242

> <PUBCHEM_OPENEYE_CAN_SMILES>
CC(C)COP(CC1=CC=CC=C1)O

> <PUBCHEM_OPENEYE_ISO_SMILES>
CC(C)COP(CC1=CC=CC=C1)O

> <PUBCHEM_CACTVS_TPSA>
29.5

> <PUBCHEM_MONOISOTOPIC_WEIGHT>
212.096616

> <PUBCHEM_TOTAL_CHARGE>
0

> <PUBCHEM_HEAVY_ATOM_COUNT>
14

> <PUBCHEM_ATOM_DEF_STEREO_COUNT>
0

> <PUBCHEM_ATOM_UDEF_STEREO_COUNT>
1

> <PUBCHEM_BOND_DEF_STEREO_COUNT>
0

> <PUBCHEM_BOND_UDEF_STEREO_COUNT>
0

> <PUBCHEM_ISOTOPIC_ATOM_COUNT>
0

> <PUBCHEM_COMPONENT_COUNT>
1

> <PUBCHEM_CACTVS_TAUTO_COUNT>
2

> <PUBCHEM_COORDINATE_TYPE>
1

> <PUBCHEM_BONDANNOTATIONS>
1  3  3

$$$$
54410347
  CDK     1229141544

 31 31  0  0  0  0  0  0  0  0999 V2000
    3.7320    0.2500    0.0000 P   0  0  3  0  0  0  0  0  0  0  0  0
    3.7320    1.2500    0.0000 O   0  0  0  0  0  0  0  0  0  0  0  0
    4.5981   -0.2500    0.0000 O   0  0  0  0  0  0  0  0  0  0  0  0
    4.5981    2.7500    0.0000 C   0  0  0  0  0  0  0  0  0  0  0  0
    4.5981    1.7500    0.0000 C   0  0  0  0  0  0  0  0  0  0  0  0
    5.4641    3.2500    0.0000 C   0  0  0  0  0  0  0  0  0  0  0  0
    3.7320    3.2500    0.0000 C   0  0  0  0  0  0  0  0  0  0  0  0
    2.8660   -0.2500    0.0000 C   0  0  0  0  0  0  0  0  0  0  0  0
    2.8660   -1.2500    0.0000 C   0  0  0  0  0  0  0  0  0  0  0  0
    2.0000   -1.7500    0.0000 C   0  0  0  0  0  0  0  0  0  0  0  0
    3.7320   -1.7500    0.0000 C   0  0  0  0  0  0  0  0  0  0  0  0
    2.0000   -2.7500    0.0000 C   0  0  0  0  0  0  0  0  0  0  0  0
    3.7320   -2.7500    0.0000 C   0  0  0  0  0  0  0  0  0  0  0  0
    2.8660   -3.2500    0.0000 C   0  0  0  0  0  0  0  0  0  0  0  0
    4.5981    3.3700    0.0000 H   0  0  0  0  0  0  0  0  0  0  0  0
    4.8101    1.1674    0.0000 H   0  0  0  0  0  0  0  0  0  0  0  0
    5.2087    1.8577    0.0000 H   0  0  0  0  0  0  0  0  0  0  0  0
    5.7741    2.7131    0.0000 H   0  0  0  0  0  0  0  0  0  0  0  0
    6.0010    3.5600    0.0000 H   0  0  0  0  0  0  0  0  0  0  0  0
    4.0420    3.7869    0.0000 H   0  0  0  0  0  0  0  0  0  0  0  0
    3.1951    3.5600    0.0000 H   0  0  0  0  0  0  0  0  0  0  0  0
    3.4220    2.7131    0.0000 H   0  0  0  0  0  0  0  0  0  0  0  0
    5.1541    3.7869    0.0000 H   0  0  0  0  0  0  0  0  0  0  0  0
    2.6540    0.3326    0.0000 H   0  0  0  0  0  0  0  0  0  0  0  0
    2.2554   -0.3577    0.0000 H   0  0  0  0  0  0  0  0  0  0  0  0
    1.4631   -1.4400    0.0000 H   0  0  0  0  0  0  0  0  0  0  0  0
    4.2690   -1.4400    0.0000 H   0  0  0  0  0  0  0  0  0  0  0  0
    1.4631   -3.0600    0.0000 H   0  0  0  0  0  0  0  0  0  0  0  0
    4.2690   -3.0600    0.0000 H   0  0  0  0  0  0  0  0  0  0  0  0
    2.8660   -3.8700    0.0000 H   0  0  0  0  0  0  0  0  0  0  0  0
    5.1350    0.0600    0.0000 H   0  0  0  0  0  0  0  0  0  0  0  0
  1  2  1  0  0  0  0 
  1  3  1  0  0  0  0 
  1  8  1  0  0  0  0 
  2  5  1  0  0  0  0 
  3 31  1  0  0  0  0 
  4  5  1  0  0  0  0 
  4  6  1  0  0  0  0 
  4  7  1  0  0  0  0 
  4 15  1  0  0  0  0 
  5 16  1  0  0  0  0 
  5 17  1  0  0  0  0 
  6 18  1  0  0  0  0 
  6 19  1  0  0  0  0 
  6 23  1  0  0  0  0 
  7 20  1  0  0  0  0 
  7 21  1  0  0  0  0 
  7 22  1  0  0  0  0 
  8  9  1  0  0  0  0 
  8 24  1  0  0  0  0 
  8 25  1  0  0  0  0 
  9 10  2  0  0  0  0 
  9 11  1  0  0  0  0 
 10 12  1  0  0  0  0 
 10 26  1  0  0  0  0 
 11 13  2  0  0  0  0 
 11 27  1  0  0  0  0 
 12 14  2  0  0  0  0 
 12 28  1  0  0  0  0 
 13 14  1  0  0  0  0 
 13 29  1  0  0  0  0 
 14 30  1  0  0  0  0 
M  END
> <cdk:Title>
54410347

> <cdk:Remark>
null

> <PUBCHEM_COMPOUND_CID>
54410347

> <PUBCHEM_COMPOUND_CANONICALIZED>
1

> <PUBCHEM_CACTVS_COMPLEXITY>
144

> <PUBCHEM_CACTVS_HBOND_ACCEPTOR>
2

> <PUBCHEM_CACTVS_HBOND_DONOR>
1

> <PUBCHEM_CACTVS_ROTATABLE_BOND>
5

> <PUBCHEM_CACTVS_SUBSKEYS>
AAADceBwMAIAAAAAAAAAAAAAAAAAAAAAAAAwAAAAAAAAAAABAAAAGggACCAADQComAIyAIAAARCAAiBCAAACAAAgAAAIiAAAAIgIICKAERCAIAAggAAIiAcAgAAOAAAAAAAAAAAAAAAAAAAAAAAAAAAAAA==

> <PUBCHEM_IUPAC_OPENEYE_NAME>
benzyl(isobutoxy)phosphinous acid

> <PUBCHEM_IUPAC_CAS_NAME>
2-methylpropoxy-(phenylmethyl)phosphinous acid

> <PUBCHEM_IUPAC_NAME>
benzyl(2-methylpropoxy)phosphinous acid

> <PUBCHEM_IUPAC_SYSTEMATIC_NAME>
2-methylpropoxy-(phenylmethyl)phosphinous acid

> <PUBCHEM_IUPAC_TRADITIONAL_NAME>
benzyl(isobutoxy)phosphinous acid

> <PUBCHEM_IUPAC_INCHI>
InChI=1S/C11H17O2P/c1-10(2)8-13-14(12)9-11-6-4-3-5-7-11/h3-7,10,12H,8-9H2,1-2H3

> <PUBCHEM_IUPAC_INCHIKEY>
VTRGEXLXQQIYMG-UHFFFAOYSA-N

> <PUBCHEM_XLOGP3_AA>
2.3

> <PUBCHEM_EXACT_MASS>
212.096616

> <PUBCHEM_MOLECULAR_FORMULA>
C11H17O2P

> <PUBCHEM_MOLECULAR_WEIGHT>
212.225242

> <PUBCHEM_OPENEYE_CAN_SMILES>
CC(C)COP(CC1=CC=CC=C1)O

> <PUBCHEM_OPENEYE_ISO_SMILES>
CC(C)COP(CC1=CC=CC=C1)O

> <PUBCHEM_CACTVS_TPSA>
29.5

> <PUBCHEM_MONOISOTOPIC_WEIGHT>
212.096616

> <PUBCHEM_TOTAL_CHARGE>
0

> <PUBCHEM_HEAVY_ATOM_COUNT>
14

> <PUBCHEM_ATOM_DEF_STEREO_COUNT>
0

> <PUBCHEM_ATOM_UDEF_STEREO_COUNT>
1

> <PUBCHEM_BOND_DEF_STEREO_COUNT>
0

> <PUBCHEM_BOND_UDEF_STEREO_COUNT>
0

> <PUBCHEM_ISOTOPIC_ATOM_COUNT>
0

> <PUBCHEM_COMPONENT_COUNT>
1

> <PUBCHEM_CACTVS_TAUTO_COUNT>
2

> <PUBCHEM_COORDINATE_TYPE>
1

> <PUBCHEM_BONDANNOTATIONS>
1  3  3

$$$$
