40099516
  CDK     0101151218

 47 50  0  0  0  0  0  0  0  0999 V2000
    3.7281    1.5486    0.0000 S   0  0  0  0  0  0  0  0  0  0  0  0
    2.3660   -1.8965    0.0000 S   0  0  0  0  0  0  0  0  0  0  0  0
    5.3159    6.4353    0.0000 O   0  0  0  0  0  0  0  0  0  0  0  0
    2.5526   -0.0694    0.0000 O   0  0  0  0  0  0  0  0  0  0  0  0
    4.0069    3.3087    0.0000 N   0  0  0  0  0  0  0  0  0  0  0  0
    5.6249    3.3087    0.0000 N   0  0  0  0  0  0  0  0  0  0  0  0
    5.3159    2.3576    0.0000 N   0  0  0  0  0  0  0  0  0  0  0  0
    3.6750   -2.8476    0.0000 N   0  0  0  0  0  0  0  0  0  0  0  0
    5.9428   -1.2965    0.0000 N   0  0  0  0  0  0  0  0  0  0  0  0
    4.8159    3.8965    0.0000 C   0  0  0  0  0  0  0  0  0  0  0  0
    4.8159    4.8965    0.0000 C   0  0  0  0  0  0  0  0  0  0  0  0
    3.9538   -1.0875    0.0000 C   0  0  2  0  0  0  0  0  0  0  0  0
    4.3159    2.3576    0.0000 C   0  0  0  0  0  0  0  0  0  0  0  0
    5.6249    5.4843    0.0000 C   0  0  0  0  0  0  0  0  0  0  0  0
    4.1349    0.6351    0.0000 C   0  0  0  0  0  0  0  0  0  0  0  0
    3.5471   -0.1739    0.0000 C   0  0  0  0  0  0  0  0  0  0  0  0
    3.3660   -1.8965    0.0000 C   0  0  0  0  0  0  0  0  0  0  0  0
    3.0558    3.6177    0.0000 C   0  0  0  0  0  0  0  0  0  0  0  0
    4.0069    5.4843    0.0000 C   0  0  0  0  0  0  0  0  0  0  0  0
    2.8660   -3.4353    0.0000 C   0  0  0  0  0  0  0  0  0  0  0  0
    2.8660   -4.4353    0.0000 C   0  0  0  0  0  0  0  0  0  0  0  0
    6.5760    5.1753    0.0000 C   0  0  0  0  0  0  0  0  0  0  0  0
    4.3159    6.4353    0.0000 C   0  0  0  0  0  0  0  0  0  0  0  0
    2.0570   -2.8476    0.0000 C   0  0  0  0  0  0  0  0  0  0  0  0
    3.7320   -4.9353    0.0000 C   0  0  0  0  0  0  0  0  0  0  0  0
    2.0000   -4.9353    0.0000 C   0  0  0  0  0  0  0  0  0  0  0  0
    4.9483   -1.1920    0.0000 C   0  0  0  0  0  0  0  0  0  0  0  0
    3.7320   -5.9353    0.0000 C   0  0  0  0  0  0  0  0  0  0  0  0
    2.0000   -5.9353    0.0000 C   0  0  0  0  0  0  0  0  0  0  0  0
    2.8660   -6.4353    0.0000 C   0  0  0  0  0  0  0  0  0  0  0  0
    4.2060   -1.6539    0.0000 H   0  0  0  0  0  0  0  0  0  0  0  0
    4.5656    0.1891    0.0000 H   0  0  0  0  0  0  0  0  0  0  0  0
    4.6489    0.9818    0.0000 H   0  0  0  0  0  0  0  0  0  0  0  0
    3.2474    4.2074    0.0000 H   0  0  0  0  0  0  0  0  0  0  0  0
    2.4662    3.8093    0.0000 H   0  0  0  0  0  0  0  0  0  0  0  0
    2.8642    3.0281    0.0000 H   0  0  0  0  0  0  0  0  0  0  0  0
    3.4172    5.2927    0.0000 H   0  0  0  0  0  0  0  0  0  0  0  0
    6.3844    4.5856    0.0000 H   0  0  0  0  0  0  0  0  0  0  0  0
    7.1656    4.9837    0.0000 H   0  0  0  0  0  0  0  0  0  0  0  0
    6.7676    5.7649    0.0000 H   0  0  0  0  0  0  0  0  0  0  0  0
    3.9515    6.9369    0.0000 H   0  0  0  0  0  0  0  0  0  0  0  0
    1.4674   -3.0391    0.0000 H   0  0  0  0  0  0  0  0  0  0  0  0
    4.2690   -4.6253    0.0000 H   0  0  0  0  0  0  0  0  0  0  0  0
    1.4631   -4.6253    0.0000 H   0  0  0  0  0  0  0  0  0  0  0  0
    4.2690   -6.2453    0.0000 H   0  0  0  0  0  0  0  0  0  0  0  0
    1.4631   -6.2453    0.0000 H   0  0  0  0  0  0  0  0  0  0  0  0
    2.8660   -7.0553    0.0000 H   0  0  0  0  0  0  0  0  0  0  0  0
  1 13  1  0  0  0  0 
  1 15  1  0  0  0  0 
  2 17  1  0  0  0  0 
  2 24  1  0  0  0  0 
  3 14  1  0  0  0  0 
  3 23  1  0  0  0  0 
  4 16  2  0  0  0  0 
  5 10  1  0  0  0  0 
  5 13  1  0  0  0  0 
  5 18  1  0  0  0  0 
  6  7  1  0  0  0  0 
  6 10  2  0  0  0  0 
  7 13  2  0  0  0  0 
  8 17  2  0  0  0  0 
  8 20  1  0  0  0  0 
  9 27  3  0  0  0  0 
 10 11  1  0  0  0  0 
 11 14  2  0  0  0  0 
 11 19  1  0  0  0  0 
 12 16  1  0  0  0  0 
 12 17  1  0  0  0  0 
 12 27  1  1  0  0  0 
 12 31  1  0  0  0  0 
 14 22  1  0  0  0  0 
 15 16  1  0  0  0  0 
 15 32  1  0  0  0  0 
 15 33  1  0  0  0  0 
 18 34  1  0  0  0  0 
 18 35  1  0  0  0  0 
 18 36  1  0  0  0  0 
 19 23  2  0  0  0  0 
 19 37  1  0  0  0  0 
 20 21  1  0  0  0  0 
 20 24  2  0  0  0  0 
 21 25  2  0  0  0  0 
 21 26  1  0  0  0  0 
 22 38  1  0  0  0  0 
 22 39  1  0  0  0  0 
 22 40  1  0  0  0  0 
 23 41  1  0  0  0  0 
 24 42  1  0  0  0  0 
 25 28  1  0  0  0  0 
 25 43  1  0  0  0  0 
 26 29  2  0  0  0  0 
 26 44  1  0  0  0  0 
 28 30  2  0  0  0  0 
 28 45  1  0  0  0  0 
 29 30  1  0  0  0  0 
 29 46  1  0  0  0  0 
 30 47  1  0  0  0  0 
M  END
> <cdk:Title>
40099516

> <cdk:Remark>
null

> <PUBCHEM_COMPOUND_CID>
40099516

> <PUBCHEM_COMPOUND_CANONICALIZED>
1

> <PUBCHEM_CACTVS_COMPLEXITY>
653

> <PUBCHEM_CACTVS_HBOND_ACCEPTOR>
8

> <PUBCHEM_CACTVS_HBOND_DONOR>
0

> <PUBCHEM_CACTVS_ROTATABLE_BOND>
7

> <PUBCHEM_CACTVS_SUBSKEYS>
AAADceB7sABgAAAAAAAAAAAAAAAAAWLEgAAwAAAAAAAAAAAB/AAAHgQIAAAADQyl3wazlZcMFEi+B65y5ACS+KtlKrgdyDU+LNiMrrqkvRuGOSjmyBOoqY+8gIAOAAAAAAAAAAAAAAAAAAAAAAAAAAAAAA==

> <PUBCHEM_IUPAC_OPENEYE_NAME>
(2R)-4-[[4-methyl-5-(2-methyl-3-furyl)-1,2,4-triazol-3-yl]sulfanyl]-3-oxo-2-(4-phenylthiazol-2-yl)butanenitrile

> <PUBCHEM_IUPAC_CAS_NAME>
(2R)-4-[[4-methyl-5-(2-methyl-3-furanyl)-1,2,4-triazol-3-yl]thio]-3-oxo-2-(4-phenyl-2-thiazolyl)butanenitrile

> <PUBCHEM_IUPAC_NAME>
(2R)-4-[[4-methyl-5-(2-methylfuran-3-yl)-1,2,4-triazol-3-yl]sulfanyl]-3-oxo-2-(4-phenyl-1,3-thiazol-2-yl)butanenitrile

> <PUBCHEM_IUPAC_SYSTEMATIC_NAME>
(2R)-4-[[4-methyl-5-(2-methylfuran-3-yl)-1,2,4-triazol-3-yl]sulfanyl]-3-oxidanylidene-2-(4-phenyl-1,3-thiazol-2-yl)butanenitrile

> <PUBCHEM_IUPAC_TRADITIONAL_NAME>
(2R)-3-keto-4-[[4-methyl-5-(2-methyl-3-furyl)-1,2,4-triazol-3-yl]thio]-2-(4-phenylthiazol-2-yl)butyronitrile

> <PUBCHEM_IUPAC_INCHI>
InChI=1S/C21H17N5O2S2/c1-13-15(8-9-28-13)19-24-25-21(26(19)2)30-12-18(27)16(10-22)20-23-17(11-29-20)14-6-4-3-5-7-14/h3-9,11,16H,12H2,1-2H3/t16-/m1/s1

> <PUBCHEM_IUPAC_INCHIKEY>
JUHGXIDEGKCTCP-MRXNPFEDSA-N

> <PUBCHEM_XLOGP3_AA>
3.5

> <PUBCHEM_EXACT_MASS>
435.082367

> <PUBCHEM_MOLECULAR_FORMULA>
C21H17N5O2S2

> <PUBCHEM_MOLECULAR_WEIGHT>
435.52198

> <PUBCHEM_OPENEYE_CAN_SMILES>
CC1=C(C=CO1)C2=NN=C(N2C)SCC(=O)C(C#N)C3=NC(=CS3)C4=CC=CC=C4

> <PUBCHEM_OPENEYE_ISO_SMILES>
CC1=C(C=CO1)C2=NN=C(N2C)SCC(=O)[C@@H](C#N)C3=NC(=CS3)C4=CC=CC=C4

> <PUBCHEM_CACTVS_TPSA>
151

> <PUBCHEM_MONOISOTOPIC_WEIGHT>
435.082367

> <PUBCHEM_TOTAL_CHARGE>
0

> <PUBCHEM_HEAVY_ATOM_COUNT>
30

> <PUBCHEM_ATOM_DEF_STEREO_COUNT>
1

> <PUBCHEM_ATOM_UDEF_STEREO_COUNT>
0

> <PUBCHEM_BOND_DEF_STEREO_COUNT>
0

> <PUBCHEM_BOND_UDEF_STEREO_COUNT>
0

> <PUBCHEM_ISOTOPIC_ATOM_COUNT>
0

> <PUBCHEM_COMPONENT_COUNT>
1

> <PUBCHEM_CACTVS_TAUTO_COUNT>
5

> <PUBCHEM_COORDINATE_TYPE>
1

> <PUBCHEM_BONDANNOTATIONS>
11  14  8

$$$$
40099516
  CDK     0101151218

 47 50  0  0  0  0  0  0  0  0999 V2000
    3.7281    1.5486    0.0000 S   0  0  0  0  0  0  0  0  0  0  0  0
    2.3660   -1.8965    0.0000 S   0  0  0  0  0  0  0  0  0  0  0  0
    5.3159    6.4353    0.0000 O   0  0  0  0  0  0  0  0  0  0  0  0
    2.5526   -0.0694    0.0000 O   0  0  0  0  0  0  0  0  0  0  0  0
    4.0069    3.3087    0.0000 N   0  0  0  0  0  0  0  0  0  0  0  0
    5.6249    3.3087    0.0000 N   0  0  0  0  0  0  0  0  0  0  0  0
    5.3159    2.3576    0.0000 N   0  0  0  0  0  0  0  0  0  0  0  0
    3.6750   -2.8476    0.0000 N   0  0  0  0  0  0  0  0  0  0  0  0
    5.9428   -1.2965    0.0000 N   0  0  0  0  0  0  0  0  0  0  0  0
    4.8159    3.8965    0.0000 C   0  0  0  0  0  0  0  0  0  0  0  0
    4.8159    4.8965    0.0000 C   0  0  0  0  0  0  0  0  0  0  0  0
    3.9538   -1.0875    0.0000 C   0  0  2  0  0  0  0  0  0  0  0  0
    4.3159    2.3576    0.0000 C   0  0  0  0  0  0  0  0  0  0  0  0
    5.6249    5.4843    0.0000 C   0  0  0  0  0  0  0  0  0  0  0  0
    4.1349    0.6351    0.0000 C   0  0  0  0  0  0  0  0  0  0  0  0
    3.5471   -0.1739    0.0000 C   0  0  0  0  0  0  0  0  0  0  0  0
    3.3660   -1.8965    0.0000 C   0  0  0  0  0  0  0  0  0  0  0  0
    3.0558    3.6177    0.0000 C   0  0  0  0  0  0  0  0  0  0  0  0
    4.0069    5.4843    0.0000 C   0  0  0  0  0  0  0  0  0  0  0  0
    2.8660   -3.4353    0.0000 C   0  0  0  0  0  0  0  0  0  0  0  0
    2.8660   -4.4353    0.0000 C   0  0  0  0  0  0  0  0  0  0  0  0
    6.5760    5.1753    0.0000 C   0  0  0  0  0  0  0  0  0  0  0  0
    4.3159    6.4353    0.0000 C   0  0  0  0  0  0  0  0  0  0  0  0
    2.0570   -2.8476    0.0000 C   0  0  0  0  0  0  0  0  0  0  0  0
    3.7320   -4.9353    0.0000 C   0  0  0  0  0  0  0  0  0  0  0  0
    2.0000   -4.9353    0.0000 C   0  0  0  0  0  0  0  0  0  0  0  0
    4.9483   -1.1920    0.0000 C   0  0  0  0  0  0  0  0  0  0  0  0
    3.7320   -5.9353    0.0000 C   0  0  0  0  0  0  0  0  0  0  0  0
    2.0000   -5.9353    0.0000 C   0  0  0  0  0  0  0  0  0  0  0  0
    2.8660   -6.4353    0.0000 C   0  0  0  0  0  0  0  0  0  0  0  0
    4.2060   -1.6539    0.0000 H   0  0  0  0  0  0  0  0  0  0  0  0
    4.5656    0.1891    0.0000 H   0  0  0  0  0  0  0  0  0  0  0  0
    4.6489    0.9818    0.0000 H   0  0  0  0  0  0  0  0  0  0  0  0
    3.2474    4.2074    0.0000 H   0  0  0  0  0  0  0  0  0  0  0  0
    2.4662    3.8093    0.0000 H   0  0  0  0  0  0  0  0  0  0  0  0
    2.8642    3.0281    0.0000 H   0  0  0  0  0  0  0  0  0  0  0  0
    3.4172    5.2927    0.0000 H   0  0  0  0  0  0  0  0  0  0  0  0
    6.3844    4.5856    0.0000 H   0  0  0  0  0  0  0  0  0  0  0  0
    7.1656    4.9837    0.0000 H   0  0  0  0  0  0  0  0  0  0  0  0
    6.7676    5.7649    0.0000 H   0  0  0  0  0  0  0  0  0  0  0  0
    3.9515    6.9369    0.0000 H   0  0  0  0  0  0  0  0  0  0  0  0
    1.4674   -3.0391    0.0000 H   0  0  0  0  0  0  0  0  0  0  0  0
    4.2690   -4.6253    0.0000 H   0  0  0  0  0  0  0  0  0  0  0  0
    1.4631   -4.6253    0.0000 H   0  0  0  0  0  0  0  0  0  0  0  0
    4.2690   -6.2453    0.0000 H   0  0  0  0  0  0  0  0  0  0  0  0
    1.4631   -6.2453    0.0000 H   0  0  0  0  0  0  0  0  0  0  0  0
    2.8660   -7.0553    0.0000 H   0  0  0  0  0  0  0  0  0  0  0  0
  1 13  1  0  0  0  0 
  1 15  1  0  0  0  0 
  2 17  1  0  0  0  0 
  2 24  1  0  0  0  0 
  3 14  1  0  0  0  0 
  3 23  1  0  0  0  0 
  4 16  2  0  0  0  0 
  5 10  1  0  0  0  0 
  5 13  1  0  0  0  0 
  5 18  1  0  0  0  0 
  6  7  1  0  0  0  0 
  6 10  2  0  0  0  0 
  7 13  2  0  0  0  0 
  8 17  2  0  0  0  0 
  8 20  1  0  0  0  0 
  9 27  3  0  0  0  0 
 10 11  1  0  0  0  0 
 11 14  2  0  0  0  0 
 11 19  1  0  0  0  0 
 12 16  1  0  0  0  0 
 12 17  1  0  0  0  0 
 12 27  1  1  0  0  0 
 12 31  1  0  0  0  0 
 14 22  1  0  0  0  0 
 15 16  1  0  0  0  0 
 15 32  1  0  0  0  0 
 15 33  1  0  0  0  0 
 18 34  1  0  0  0  0 
 18 35  1  0  0  0  0 
 18 36  1  0  0  0  0 
 19 23  2  0  0  0  0 
 19 37  1  0  0  0  0 
 20 21  1  0  0  0  0 
 20 24  2  0  0  0  0 
 21 25  2  0  0  0  0 
 21 26  1  0  0  0  0 
 22 38  1  0  0  0  0 
 22 39  1  0  0  0  0 
 22 40  1  0  0  0  0 
 23 41  1  0  0  0  0 
 24 42  1  0  0  0  0 
 25 28  1  0  0  0  0 
 25 43  1  0  0  0  0 
 26 29  2  0  0  0  0 
 26 44  1  0  0  0  0 
 28 30  2  0  0  0  0 
 28 45  1  0  0  0  0 
 29 30  1  0  0  0  0 
 29 46  1  0  0  0  0 
 30 47  1  0  0  0  0 
M  END
> <cdk:Title>
40099516

> <cdk:Remark>
null

> <PUBCHEM_COMPOUND_CID>
40099516

> <PUBCHEM_COMPOUND_CANONICALIZED>
1

> <PUBCHEM_CACTVS_COMPLEXITY>
653

> <PUBCHEM_CACTVS_HBOND_ACCEPTOR>
8

> <PUBCHEM_CACTVS_HBOND_DONOR>
0

> <PUBCHEM_CACTVS_ROTATABLE_BOND>
7

> <PUBCHEM_CACTVS_SUBSKEYS>
AAADceB7sABgAAAAAAAAAAAAAAAAAWLEgAAwAAAAAAAAAAAB/AAAHgQIAAAADQyl3wazlZcMFEi+B65y5ACS+KtlKrgdyDU+LNiMrrqkvRuGOSjmyBOoqY+8gIAOAAAAAAAAAAAAAAAAAAAAAAAAAAAAAA==

> <PUBCHEM_IUPAC_OPENEYE_NAME>
(2R)-4-[[4-methyl-5-(2-methyl-3-furyl)-1,2,4-triazol-3-yl]sulfanyl]-3-oxo-2-(4-phenylthiazol-2-yl)butanenitrile

> <PUBCHEM_IUPAC_CAS_NAME>
(2R)-4-[[4-methyl-5-(2-methyl-3-furanyl)-1,2,4-triazol-3-yl]thio]-3-oxo-2-(4-phenyl-2-thiazolyl)butanenitrile

> <PUBCHEM_IUPAC_NAME>
(2R)-4-[[4-methyl-5-(2-methylfuran-3-yl)-1,2,4-triazol-3-yl]sulfanyl]-3-oxo-2-(4-phenyl-1,3-thiazol-2-yl)butanenitrile

> <PUBCHEM_IUPAC_SYSTEMATIC_NAME>
(2R)-4-[[4-methyl-5-(2-methylfuran-3-yl)-1,2,4-triazol-3-yl]sulfanyl]-3-oxidanylidene-2-(4-phenyl-1,3-thiazol-2-yl)butanenitrile

> <PUBCHEM_IUPAC_TRADITIONAL_NAME>
(2R)-3-keto-4-[[4-methyl-5-(2-methyl-3-furyl)-1,2,4-triazol-3-yl]thio]-2-(4-phenylthiazol-2-yl)butyronitrile

> <PUBCHEM_IUPAC_INCHI>
InChI=1S/C21H17N5O2S2/c1-13-15(8-9-28-13)19-24-25-21(26(19)2)30-12-18(27)16(10-22)20-23-17(11-29-20)14-6-4-3-5-7-14/h3-9,11,16H,12H2,1-2H3/t16-/m1/s1

> <PUBCHEM_IUPAC_INCHIKEY>
JUHGXIDEGKCTCP-MRXNPFEDSA-N

> <PUBCHEM_XLOGP3_AA>
3.5

> <PUBCHEM_EXACT_MASS>
435.082367

> <PUBCHEM_MOLECULAR_FORMULA>
C21H17N5O2S2

> <PUBCHEM_MOLECULAR_WEIGHT>
435.52198

> <PUBCHEM_OPENEYE_CAN_SMILES>
CC1=C(C=CO1)C2=NN=C(N2C)SCC(=O)C(C#N)C3=NC(=CS3)C4=CC=CC=C4

> <PUBCHEM_OPENEYE_ISO_SMILES>
CC1=C(C=CO1)C2=NN=C(N2C)SCC(=O)[C@@H](C#N)C3=NC(=CS3)C4=CC=CC=C4

> <PUBCHEM_CACTVS_TPSA>
151

> <PUBCHEM_MONOISOTOPIC_WEIGHT>
435.082367

> <PUBCHEM_TOTAL_CHARGE>
0

> <PUBCHEM_HEAVY_ATOM_COUNT>
30

> <PUBCHEM_ATOM_DEF_STEREO_COUNT>
1

> <PUBCHEM_ATOM_UDEF_STEREO_COUNT>
0

> <PUBCHEM_BOND_DEF_STEREO_COUNT>
0

> <PUBCHEM_BOND_UDEF_STEREO_COUNT>
0

> <PUBCHEM_ISOTOPIC_ATOM_COUNT>
0

> <PUBCHEM_COMPONENT_COUNT>
1

> <PUBCHEM_CACTVS_TAUTO_COUNT>
5

> <PUBCHEM_COORDINATE_TYPE>
1

> <PUBCHEM_BONDANNOTATIONS>
11  14  8

$$$$
