3138159
  CDK     0104151054

 34 34  0  0  0  0  0  0  0  0999 V2000
    2.5369   -1.4400    0.0000 O   0  0  0  0  0  0  0  0  0  0  0  0
    5.1350   -1.9400    0.0000 N   0  0  0  0  0  0  0  0  0  0  0  0
    6.8671    1.0600    0.0000 N   0  0  0  0  0  0  0  0  0  0  0  0
    8.5991   -1.9400    0.0000 N   0  0  0  0  0  0  0  0  0  0  0  0
    6.8671   -1.9400    0.0000 N   0  0  0  0  0  0  0  0  0  0  0  0
    6.0010   -0.4400    0.0000 N   0  0  0  0  0  0  0  0  0  0  0  0
    7.7331   -0.4400    0.0000 N   0  0  0  0  0  0  0  0  0  0  0  0
    4.2690   -1.4400    0.0000 C   0  0  0  0  0  0  0  0  0  0  0  0
    6.0010   -1.4400    0.0000 C   0  0  0  0  0  0  0  0  0  0  0  0
    6.8671    0.0600    0.0000 C   0  0  0  0  0  0  0  0  0  0  0  0
    7.7331   -1.4400    0.0000 C   0  0  0  0  0  0  0  0  0  0  0  0
    7.7331    1.5600    0.0000 C   0  0  0  0  0  0  0  0  0  0  0  0
    9.4651   -1.4400    0.0000 C   0  0  0  0  0  0  0  0  0  0  0  0
    3.4030   -1.9400    0.0000 C   0  0  0  0  0  0  0  0  0  0  0  0
    7.7331    2.5600    0.0000 C   0  0  0  0  0  0  0  0  0  0  0  0
   10.3312   -1.9400    0.0000 C   0  0  0  0  0  0  0  0  0  0  0  0
    4.6675   -0.9651    0.0000 H   0  0  0  0  0  0  0  0  0  0  0  0
    3.8705   -0.9651    0.0000 H   0  0  0  0  0  0  0  0  0  0  0  0
    5.1350   -2.5600    0.0000 H   0  0  0  0  0  0  0  0  0  0  0  0
    7.9451    0.9774    0.0000 H   0  0  0  0  0  0  0  0  0  0  0  0
    8.3437    1.6677    0.0000 H   0  0  0  0  0  0  0  0  0  0  0  0
    9.8637   -0.9651    0.0000 H   0  0  0  0  0  0  0  0  0  0  0  0
    9.0666   -0.9651    0.0000 H   0  0  0  0  0  0  0  0  0  0  0  0
    6.3301    1.3700    0.0000 H   0  0  0  0  0  0  0  0  0  0  0  0
    8.5991   -2.5600    0.0000 H   0  0  0  0  0  0  0  0  0  0  0  0
    3.0044   -2.4150    0.0000 H   0  0  0  0  0  0  0  0  0  0  0  0
    3.8015   -2.4150    0.0000 H   0  0  0  0  0  0  0  0  0  0  0  0
    8.3531    2.5600    0.0000 H   0  0  0  0  0  0  0  0  0  0  0  0
    7.7331    3.1800    0.0000 H   0  0  0  0  0  0  0  0  0  0  0  0
    7.1131    2.5600    0.0000 H   0  0  0  0  0  0  0  0  0  0  0  0
   10.0212   -2.4769    0.0000 H   0  0  0  0  0  0  0  0  0  0  0  0
   10.8681   -2.2500    0.0000 H   0  0  0  0  0  0  0  0  0  0  0  0
   10.6412   -1.4031    0.0000 H   0  0  0  0  0  0  0  0  0  0  0  0
    2.0000   -1.7500    0.0000 H   0  0  0  0  0  0  0  0  0  0  0  0
  1 14  1  0  0  0  0 
  1 34  1  0  0  0  0 
  2  8  1  0  0  0  0 
  2  9  1  0  0  0  0 
  2 19  1  0  0  0  0 
  3 10  1  0  0  0  0 
  3 12  1  0  0  0  0 
  3 24  1  0  0  0  0 
  4 11  1  0  0  0  0 
  4 13  1  0  0  0  0 
  4 25  1  0  0  0  0 
  5  9  2  0  0  0  0 
  5 11  1  0  0  0  0 
  6  9  1  0  0  0  0 
  6 10  2  0  0  0  0 
  7 10  1  0  0  0  0 
  7 11  2  0  0  0  0 
  8 14  1  0  0  0  0 
  8 17  1  0  0  0  0 
  8 18  1  0  0  0  0 
 12 15  1  0  0  0  0 
 12 20  1  0  0  0  0 
 12 21  1  0  0  0  0 
 13 16  1  0  0  0  0 
 13 22  1  0  0  0  0 
 13 23  1  0  0  0  0 
 14 26  1  0  0  0  0 
 14 27  1  0  0  0  0 
 15 28  1  0  0  0  0 
 15 29  1  0  0  0  0 
 15 30  1  0  0  0  0 
 16 31  1  0  0  0  0 
 16 32  1  0  0  0  0 
 16 33  1  0  0  0  0 
M  END
> <cdk:Title>
3138159

> <cdk:Remark>
null

> <PUBCHEM_COMPOUND_CID>
3138159

> <PUBCHEM_COMPOUND_CANONICALIZED>
1

> <PUBCHEM_CACTVS_COMPLEXITY>
167

> <PUBCHEM_CACTVS_HBOND_ACCEPTOR>
7

> <PUBCHEM_CACTVS_HBOND_DONOR>
4

> <PUBCHEM_CACTVS_ROTATABLE_BOND>
7

> <PUBCHEM_CACTVS_SUBSKEYS>
AAADceBzoAAAAAAAAAAAAAAAAAAAAAAAAAAsAAAAAAAAAAABgAAAHgAQCAAAAADhgAYDEAbIEgAgAAAAJAAAAAkAAIABAIAIAACCGAAACAAAAAAIEAIQAAAAAAAAAAAAAAAAAAAAAAAAAAAAAAAAAAAAAA==

> <PUBCHEM_IUPAC_OPENEYE_NAME>
2-[[4,6-bis(ethylamino)-1,3,5-triazin-2-yl]amino]ethanol

> <PUBCHEM_IUPAC_CAS_NAME>
2-[[4,6-bis(ethylamino)-1,3,5-triazin-2-yl]amino]ethanol

> <PUBCHEM_IUPAC_NAME>
2-[[4,6-bis(ethylamino)-1,3,5-triazin-2-yl]amino]ethanol

> <PUBCHEM_IUPAC_SYSTEMATIC_NAME>
2-[[4,6-bis(ethylamino)-1,3,5-triazin-2-yl]amino]ethanol

> <PUBCHEM_IUPAC_TRADITIONAL_NAME>
2-[[4,6-bis(ethylamino)-s-triazin-2-yl]amino]ethanol

> <PUBCHEM_IUPAC_INCHI>
InChI=1S/C9H18N6O/c1-3-10-7-13-8(11-4-2)15-9(14-7)12-5-6-16/h16H,3-6H2,1-2H3,(H3,10,11,12,13,14,15)

> <PUBCHEM_IUPAC_INCHIKEY>
PWMAUNCPDJKPMM-UHFFFAOYSA-N

> <PUBCHEM_XLOGP3_AA>
1

> <PUBCHEM_EXACT_MASS>
226.154209

> <PUBCHEM_MOLECULAR_FORMULA>
C9H18N6O

> <PUBCHEM_MOLECULAR_WEIGHT>
226.27882

> <PUBCHEM_OPENEYE_CAN_SMILES>
CCNC1=NC(=NC(=N1)NCCO)NCC

> <PUBCHEM_OPENEYE_ISO_SMILES>
CCNC1=NC(=NC(=N1)NCCO)NCC

> <PUBCHEM_CACTVS_TPSA>
95

> <PUBCHEM_MONOISOTOPIC_WEIGHT>
226.154209

> <PUBCHEM_TOTAL_CHARGE>
0

> <PUBCHEM_HEAVY_ATOM_COUNT>
16

> <PUBCHEM_ATOM_DEF_STEREO_COUNT>
0

> <PUBCHEM_ATOM_UDEF_STEREO_COUNT>
0

> <PUBCHEM_BOND_DEF_STEREO_COUNT>
0

> <PUBCHEM_BOND_UDEF_STEREO_COUNT>
0

> <PUBCHEM_ISOTOPIC_ATOM_COUNT>
0

> <PUBCHEM_COMPONENT_COUNT>
1

> <PUBCHEM_CACTVS_TAUTO_COUNT>
10

> <PUBCHEM_COORDINATE_TYPE>
1

> <PUBCHEM_BONDANNOTATIONS>
5  11  8

$$$$
