
  CDK     0202151413

 12 11  0  0  0  0  0  0  0  0999 V2000
    5.4641    1.0000    0.0000 O   0  0  0  0  0  0  0  0  0  0  0  0
    5.4641   -1.0000    0.0000 O   0  0  0  0  0  0  0  0  0  0  0  0
    3.7320   -1.0000    0.0000 N   0  0  0  0  0  0  0  0  0  0  0  0
    2.8660   -2.5000    0.0000 C   0  0  0  0  0  0  0  0  0  0  0  0
    3.7320   -2.0000    0.0000 C   0  0  0  0  0  0  0  0  0  0  0  0
    2.8660   -3.5000    0.0000 C   0  0  0  0  0  0  0  0  0  0  0  0
    4.5981   -2.5000    0.0000 C   0  0  0  0  0  0  0  0  0  0  0  0
    4.5981   -3.5000    0.0000 C   0  0  0  0  0  0  0  0  0  0  0  0
    4.5981   -0.5000    0.0000 C   0  0  0  0  0  0  0  0  0  0  0  0
    4.5981    0.5000    0.0000 C   0  0  0  0  0  0  0  0  0  0  0  0
    6.3301    2.5000    0.0000 C   0  0  0  0  0  0  0  0  0  0  0  0
    5.4641    2.0000    0.0000 C   0  0  0  0  0  0  0  0  0  0  0  0
  1 10  1  0  0  0  0 
  1 12  1  0  0  0  0 
  2  9  1  0  0  0  0 
  3  5  1  0  0  0  0 
  3  9  1  0  0  0  0 
  4  5  1  0  0  0  0 
  4  6  1  0  0  0  0 
  5  7  1  0  0  0  0 
  7  8  1  0  0  0  0 
  9 10  1  0  0  0  0 
 11 12  1  0  0  0  0 
M  END
> <PUBCHEM_COMPOUND_CID>
2564065

$$$$
