
  CDK     0202151410

 19 20  0  0  0  0  0  0  0  0999 V2000
    5.5208    0.6449    0.0000 O   0  0  0  0  0  0  0  0  0  0  0  0
    2.2904    1.5688    0.0000 O   0  0  0  0  0  0  0  0  0  0  0  0
    5.0327   -2.7480    0.0000 O   0  0  0  0  0  0  0  0  0  0  0  0
    3.6730    2.4927    0.0000 N   0  0  0  0  0  0  0  0  0  0  0  0
    5.6770   -1.1402    0.0000 N   0  0  0  0  0  0  0  0  0  0  0  0
    6.7472   -2.5021    0.0000 N   0  0  0  0  0  0  0  0  0  0  0  0
    5.5208    2.4927    0.0000 C   0  0  1  0  0  0  0  0  0  0  0  0
    5.9035    1.5688    0.0000 C   0  0  1  0  0  0  0  0  0  0  0  0
    4.5969    2.8754    0.0000 C   0  0  0  0  0  0  0  0  0  0  0  0
    2.9659    3.1998    0.0000 C   0  0  1  0  0  0  0  0  0  0  0  0
    6.9035    1.5688    0.0000 C   0  0  0  0  0  0  0  0  0  0  0  0
    3.2904    1.5688    0.0000 C   0  0  0  0  0  0  0  0  0  0  0  0
    4.5969    0.2622    0.0000 C   0  0  0  0  0  0  0  0  0  0  0  0
    3.6730    0.6449    0.0000 C   0  0  0  0  0  0  0  0  0  0  0  0
    4.7488   -0.7683    0.0000 C   0  0  0  0  0  0  0  0  0  0  0  0
    2.8370    0.0236    0.0000 C   0  0  0  0  0  0  0  0  0  0  0  0
    3.9273   -1.4087    0.0000 C   0  0  0  0  0  0  0  0  0  0  0  0
    2.9650   -1.0101    0.0000 C   0  0  0  0  0  0  0  0  0  0  0  0
    5.8190   -2.1301    0.0000 C   0  0  0  0  0  0  0  0  0  0  0  0
  1  8  1  0  0  0  0 
  1 13  1  0  0  0  0 
  2 12  1  0  0  0  0 
  3 19  1  0  0  0  0 
  4  9  1  0  0  0  0 
  4 10  1  0  0  0  0 
  4 12  1  0  0  0  0 
  5 15  1  0  0  0  0 
  5 19  1  0  0  0  0 
  6 19  1  0  0  0  0 
  7  8  1  0  0  0  0 
  7  9  1  0  0  0  0 
  8 11  1  1  0  0  0 
 12 14  1  0  0  0  0 
 13 14  1  0  0  0  0 
 13 15  1  0  0  0  0 
 14 16  1  0  0  0  0 
 15 17  1  0  0  0  0 
 16 18  1  0  0  0  0 
 17 18  1  0  0  0  0 
M  END
> <PUBCHEM_COMPOUND_CID>
44495362

$$$$
