53188891
  CDK     1229141458

 57 60  0  0  0  0  0  0  0  0999 V2000
    6.7619   -0.1651    0.0000 O   0  0  0  0  0  0  0  0  0  0  0  0
    9.2619    2.4330    0.0000 N   0  0  0  0  0  0  0  0  0  0  0  0
   11.2619    2.4330    0.0000 N   0  0  0  0  0  0  0  0  0  0  0  0
    6.7619    1.5670    0.0000 N   0  0  0  0  0  0  0  0  0  0  0  0
    3.7320    1.2010    0.0000 N   0  0  0  0  0  0  0  0  0  0  0  0
    4.6783   -0.1038    0.0000 N   0  0  0  0  0  0  0  0  0  0  0  0
    2.0000    0.2010    0.0000 N   0  0  0  0  0  0  0  0  0  0  0  0
    9.7619    1.5670    0.0000 C   0  0  0  0  0  0  0  0  0  0  0  0
    9.7619    3.2990    0.0000 C   0  0  0  0  0  0  0  0  0  0  0  0
   10.7619    3.2990    0.0000 C   0  0  0  0  0  0  0  0  0  0  0  0
   10.7619    1.5670    0.0000 C   0  0  0  0  0  0  0  0  0  0  0  0
   12.2619    2.4330    0.0000 C   0  0  0  0  0  0  0  0  0  0  0  0
    8.2619    2.4330    0.0000 C   0  0  0  0  0  0  0  0  0  0  0  0
   12.7619    3.2990    0.0000 C   0  0  0  0  0  0  0  0  0  0  0  0
    7.7619    1.5670    0.0000 C   0  0  0  0  0  0  0  0  0  0  0  0
   13.7619    3.2990    0.0000 C   0  0  0  0  0  0  0  0  0  0  0  0
    6.2619    0.7010    0.0000 C   0  0  0  0  0  0  0  0  0  0  0  0
    5.2619    0.7010    0.0000 C   0  0  0  0  0  0  0  0  0  0  0  0
    3.7320    0.2010    0.0000 C   0  0  0  0  0  0  0  0  0  0  0  0
    4.6783    1.5057    0.0000 C   0  0  0  0  0  0  0  0  0  0  0  0
    2.8660   -0.2990    0.0000 C   0  0  0  0  0  0  0  0  0  0  0  0
    2.8660    1.7010    0.0000 C   0  0  0  0  0  0  0  0  0  0  0  0
    2.8660   -1.2990    0.0000 C   0  0  0  0  0  0  0  0  0  0  0  0
    2.0000    1.2010    0.0000 C   0  0  0  0  0  0  0  0  0  0  0  0
    2.0000   -1.7990    0.0000 C   0  0  0  0  0  0  0  0  0  0  0  0
    3.7320   -1.7990    0.0000 C   0  0  0  0  0  0  0  0  0  0  0  0
    2.0000   -2.7990    0.0000 C   0  0  0  0  0  0  0  0  0  0  0  0
    3.7320   -2.7990    0.0000 C   0  0  0  0  0  0  0  0  0  0  0  0
    2.8660   -3.2990    0.0000 C   0  0  0  0  0  0  0  0  0  0  0  0
    9.1793    1.3549    0.0000 H   0  0  0  0  0  0  0  0  0  0  0  0
    9.8695    0.9564    0.0000 H   0  0  0  0  0  0  0  0  0  0  0  0
    9.8695    3.9096    0.0000 H   0  0  0  0  0  0  0  0  0  0  0  0
    9.1793    3.5111    0.0000 H   0  0  0  0  0  0  0  0  0  0  0  0
   10.6542    0.9564    0.0000 H   0  0  0  0  0  0  0  0  0  0  0  0
   11.3445    1.3549    0.0000 H   0  0  0  0  0  0  0  0  0  0  0  0
   11.3445    3.5111    0.0000 H   0  0  0  0  0  0  0  0  0  0  0  0
   10.6542    3.9096    0.0000 H   0  0  0  0  0  0  0  0  0  0  0  0
    8.3695    3.0436    0.0000 H   0  0  0  0  0  0  0  0  0  0  0  0
    7.6793    2.6451    0.0000 H   0  0  0  0  0  0  0  0  0  0  0  0
   12.1542    1.8224    0.0000 H   0  0  0  0  0  0  0  0  0  0  0  0
   12.8445    2.2210    0.0000 H   0  0  0  0  0  0  0  0  0  0  0  0
   12.8695    3.9096    0.0000 H   0  0  0  0  0  0  0  0  0  0  0  0
   12.1793    3.5111    0.0000 H   0  0  0  0  0  0  0  0  0  0  0  0
    7.6542    0.9564    0.0000 H   0  0  0  0  0  0  0  0  0  0  0  0
    8.3445    1.3549    0.0000 H   0  0  0  0  0  0  0  0  0  0  0  0
   13.7619    2.6790    0.0000 H   0  0  0  0  0  0  0  0  0  0  0  0
   14.3819    3.2990    0.0000 H   0  0  0  0  0  0  0  0  0  0  0  0
   13.7619    3.9190    0.0000 H   0  0  0  0  0  0  0  0  0  0  0  0
    6.4519    2.1039    0.0000 H   0  0  0  0  0  0  0  0  0  0  0  0
    4.8709    2.0950    0.0000 H   0  0  0  0  0  0  0  0  0  0  0  0
    2.8660    2.3210    0.0000 H   0  0  0  0  0  0  0  0  0  0  0  0
    1.4631    1.5110    0.0000 H   0  0  0  0  0  0  0  0  0  0  0  0
    1.4631   -1.4890    0.0000 H   0  0  0  0  0  0  0  0  0  0  0  0
    4.2690   -1.4890    0.0000 H   0  0  0  0  0  0  0  0  0  0  0  0
    1.4631   -3.1090    0.0000 H   0  0  0  0  0  0  0  0  0  0  0  0
    4.2690   -3.1090    0.0000 H   0  0  0  0  0  0  0  0  0  0  0  0
    2.8660   -3.9190    0.0000 H   0  0  0  0  0  0  0  0  0  0  0  0
  1 17  2  0  0  0  0 
  2  8  1  0  0  0  0 
  2  9  1  0  0  0  0 
  2 13  1  0  0  0  0 
  3 10  1  0  0  0  0 
  3 11  1  0  0  0  0 
  3 12  1  0  0  0  0 
  4 15  1  0  0  0  0 
  4 17  1  0  0  0  0 
  4 49  1  0  0  0  0 
  5 19  1  0  0  0  0 
  5 20  1  0  0  0  0 
  5 22  1  0  0  0  0 
  6 18  1  0  0  0  0 
  6 19  2  0  0  0  0 
  7 21  2  0  0  0  0 
  7 24  1  0  0  0  0 
  8 11  1  0  0  0  0 
  8 30  1  0  0  0  0 
  8 31  1  0  0  0  0 
  9 10  1  0  0  0  0 
  9 32  1  0  0  0  0 
  9 33  1  0  0  0  0 
 10 36  1  0  0  0  0 
 10 37  1  0  0  0  0 
 11 34  1  0  0  0  0 
 11 35  1  0  0  0  0 
 12 14  1  0  0  0  0 
 12 40  1  0  0  0  0 
 12 41  1  0  0  0  0 
 13 15  1  0  0  0  0 
 13 38  1  0  0  0  0 
 13 39  1  0  0  0  0 
 14 16  1  0  0  0  0 
 14 42  1  0  0  0  0 
 14 43  1  0  0  0  0 
 15 44  1  0  0  0  0 
 15 45  1  0  0  0  0 
 16 46  1  0  0  0  0 
 16 47  1  0  0  0  0 
 16 48  1  0  0  0  0 
 17 18  1  0  0  0  0 
 18 20  2  0  0  0  0 
 19 21  1  0  0  0  0 
 20 50  1  0  0  0  0 
 21 23  1  0  0  0  0 
 22 24  2  0  0  0  0 
 22 51  1  0  0  0  0 
 23 25  2  0  0  0  0 
 23 26  1  0  0  0  0 
 24 52  1  0  0  0  0 
 25 27  1  0  0  0  0 
 25 53  1  0  0  0  0 
 26 28  2  0  0  0  0 
 26 54  1  0  0  0  0 
 27 29  2  0  0  0  0 
 27 55  1  0  0  0  0 
 28 29  1  0  0  0  0 
 28 56  1  0  0  0  0 
 29 57  1  0  0  0  0 
M  END
> <cdk:Title>
53188891

> <cdk:Remark>
null

> <PUBCHEM_COMPOUND_CID>
53188891

> <PUBCHEM_COMPOUND_CANONICALIZED>
1

> <PUBCHEM_CACTVS_COMPLEXITY>
517

> <PUBCHEM_CACTVS_HBOND_ACCEPTOR>
5

> <PUBCHEM_CACTVS_HBOND_DONOR>
1

> <PUBCHEM_CACTVS_ROTATABLE_BOND>
7

> <PUBCHEM_CACTVS_SUBSKEYS>
AAADceB7oAAAAAAAAAAAAAAAAAAAAWAAAAA8WIAAAAAAAFgB8AAAHgAQAAAADAjBnwQ/sJ/MGACoAzd3dACCgC03EqAJ2KG4dNiIaOrA2TGUIIholgLIyOcQgIAOAAAAAAAAAAAAAAAAAAAAAAAAAAAAAA==

> <PUBCHEM_IUPAC_OPENEYE_NAME>
8-phenyl-N-[2-(4-propylpiperazin-1-yl)ethyl]imidazo[1,2-a]pyrazine-2-carboxamide

> <PUBCHEM_IUPAC_CAS_NAME>
8-phenyl-N-[2-(4-propyl-1-piperazinyl)ethyl]-2-imidazo[1,2-a]pyrazinecarboxamide

> <PUBCHEM_IUPAC_NAME>
8-phenyl-N-[2-(4-propylpiperazin-1-yl)ethyl]imidazo[1,2-a]pyrazine-2-carboxamide

> <PUBCHEM_IUPAC_SYSTEMATIC_NAME>
8-phenyl-N-[2-(4-propylpiperazin-1-yl)ethyl]imidazo[1,2-a]pyrazine-2-carboxamide

> <PUBCHEM_IUPAC_TRADITIONAL_NAME>
8-phenyl-N-[2-(4-propylpiperazino)ethyl]imidazo[1,2-a]pyrazine-2-carboxamide

> <PUBCHEM_IUPAC_INCHI>
InChI=1S/C22H28N6O/c1-2-10-26-13-15-27(16-14-26)11-8-24-22(29)19-17-28-12-9-23-20(21(28)25-19)18-6-4-3-5-7-18/h3-7,9,12,17H,2,8,10-11,13-16H2,1H3,(H,24,29)

> <PUBCHEM_IUPAC_INCHIKEY>
OKSODOUYNMNIAU-UHFFFAOYSA-N

> <PUBCHEM_XLOGP3_AA>
2.7

> <PUBCHEM_EXACT_MASS>
392.23246

> <PUBCHEM_MOLECULAR_FORMULA>
C22H28N6O

> <PUBCHEM_MOLECULAR_WEIGHT>
392.49732

> <PUBCHEM_OPENEYE_CAN_SMILES>
CCCN1CCN(CC1)CCNC(=O)C2=CN3C=CN=C(C3=N2)C4=CC=CC=C4

> <PUBCHEM_OPENEYE_ISO_SMILES>
CCCN1CCN(CC1)CCNC(=O)C2=CN3C=CN=C(C3=N2)C4=CC=CC=C4

> <PUBCHEM_CACTVS_TPSA>
65.8

> <PUBCHEM_MONOISOTOPIC_WEIGHT>
392.23246

> <PUBCHEM_TOTAL_CHARGE>
0

> <PUBCHEM_HEAVY_ATOM_COUNT>
29

> <PUBCHEM_ATOM_DEF_STEREO_COUNT>
0

> <PUBCHEM_ATOM_UDEF_STEREO_COUNT>
0

> <PUBCHEM_BOND_DEF_STEREO_COUNT>
0

> <PUBCHEM_BOND_UDEF_STEREO_COUNT>
0

> <PUBCHEM_ISOTOPIC_ATOM_COUNT>
0

> <PUBCHEM_COMPONENT_COUNT>
1

> <PUBCHEM_CACTVS_TAUTO_COUNT>
2

> <PUBCHEM_COORDINATE_TYPE>
1

> <PUBCHEM_BONDANNOTATIONS>
18  20  8

$$$$
40099516
  CDK     1229141458

 47 50  0  0  0  0  0  0  0  0999 V2000
    3.7281    1.5486    0.0000 S   0  0  0  0  0  0  0  0  0  0  0  0
    2.3660   -1.8965    0.0000 S   0  0  0  0  0  0  0  0  0  0  0  0
    5.3159    6.4353    0.0000 O   0  0  0  0  0  0  0  0  0  0  0  0
    2.5526   -0.0694    0.0000 O   0  0  0  0  0  0  0  0  0  0  0  0
    4.0069    3.3087    0.0000 N   0  0  0  0  0  0  0  0  0  0  0  0
    5.6249    3.3087    0.0000 N   0  0  0  0  0  0  0  0  0  0  0  0
    5.3159    2.3576    0.0000 N   0  0  0  0  0  0  0  0  0  0  0  0
    3.6750   -2.8476    0.0000 N   0  0  0  0  0  0  0  0  0  0  0  0
    5.9428   -1.2965    0.0000 N   0  0  0  0  0  0  0  0  0  0  0  0
    4.8159    3.8965    0.0000 C   0  0  0  0  0  0  0  0  0  0  0  0
    4.8159    4.8965    0.0000 C   0  0  0  0  0  0  0  0  0  0  0  0
    3.9538   -1.0875    0.0000 C   0  0  2  0  0  0  0  0  0  0  0  0
    4.3159    2.3576    0.0000 C   0  0  0  0  0  0  0  0  0  0  0  0
    5.6249    5.4843    0.0000 C   0  0  0  0  0  0  0  0  0  0  0  0
    4.1349    0.6351    0.0000 C   0  0  0  0  0  0  0  0  0  0  0  0
    3.5471   -0.1739    0.0000 C   0  0  0  0  0  0  0  0  0  0  0  0
    3.3660   -1.8965    0.0000 C   0  0  0  0  0  0  0  0  0  0  0  0
    3.0558    3.6177    0.0000 C   0  0  0  0  0  0  0  0  0  0  0  0
    4.0069    5.4843    0.0000 C   0  0  0  0  0  0  0  0  0  0  0  0
    2.8660   -3.4353    0.0000 C   0  0  0  0  0  0  0  0  0  0  0  0
    2.8660   -4.4353    0.0000 C   0  0  0  0  0  0  0  0  0  0  0  0
    6.5760    5.1753    0.0000 C   0  0  0  0  0  0  0  0  0  0  0  0
    4.3159    6.4353    0.0000 C   0  0  0  0  0  0  0  0  0  0  0  0
    2.0570   -2.8476    0.0000 C   0  0  0  0  0  0  0  0  0  0  0  0
    3.7320   -4.9353    0.0000 C   0  0  0  0  0  0  0  0  0  0  0  0
    2.0000   -4.9353    0.0000 C   0  0  0  0  0  0  0  0  0  0  0  0
    4.9483   -1.1920    0.0000 C   0  0  0  0  0  0  0  0  0  0  0  0
    3.7320   -5.9353    0.0000 C   0  0  0  0  0  0  0  0  0  0  0  0
    2.0000   -5.9353    0.0000 C   0  0  0  0  0  0  0  0  0  0  0  0
    2.8660   -6.4353    0.0000 C   0  0  0  0  0  0  0  0  0  0  0  0
    4.2060   -1.6539    0.0000 H   0  0  0  0  0  0  0  0  0  0  0  0
    4.5656    0.1891    0.0000 H   0  0  0  0  0  0  0  0  0  0  0  0
    4.6489    0.9818    0.0000 H   0  0  0  0  0  0  0  0  0  0  0  0
    3.2474    4.2074    0.0000 H   0  0  0  0  0  0  0  0  0  0  0  0
    2.4662    3.8093    0.0000 H   0  0  0  0  0  0  0  0  0  0  0  0
    2.8642    3.0281    0.0000 H   0  0  0  0  0  0  0  0  0  0  0  0
    3.4172    5.2927    0.0000 H   0  0  0  0  0  0  0  0  0  0  0  0
    6.3844    4.5856    0.0000 H   0  0  0  0  0  0  0  0  0  0  0  0
    7.1656    4.9837    0.0000 H   0  0  0  0  0  0  0  0  0  0  0  0
    6.7676    5.7649    0.0000 H   0  0  0  0  0  0  0  0  0  0  0  0
    3.9515    6.9369    0.0000 H   0  0  0  0  0  0  0  0  0  0  0  0
    1.4674   -3.0391    0.0000 H   0  0  0  0  0  0  0  0  0  0  0  0
    4.2690   -4.6253    0.0000 H   0  0  0  0  0  0  0  0  0  0  0  0
    1.4631   -4.6253    0.0000 H   0  0  0  0  0  0  0  0  0  0  0  0
    4.2690   -6.2453    0.0000 H   0  0  0  0  0  0  0  0  0  0  0  0
    1.4631   -6.2453    0.0000 H   0  0  0  0  0  0  0  0  0  0  0  0
    2.8660   -7.0553    0.0000 H   0  0  0  0  0  0  0  0  0  0  0  0
  1 13  1  0  0  0  0 
  1 15  1  0  0  0  0 
  2 17  1  0  0  0  0 
  2 24  1  0  0  0  0 
  3 14  1  0  0  0  0 
  3 23  1  0  0  0  0 
  4 16  2  0  0  0  0 
  5 10  1  0  0  0  0 
  5 13  1  0  0  0  0 
  5 18  1  0  0  0  0 
  6  7  1  0  0  0  0 
  6 10  2  0  0  0  0 
  7 13  2  0  0  0  0 
  8 17  2  0  0  0  0 
  8 20  1  0  0  0  0 
  9 27  3  0  0  0  0 
 10 11  1  0  0  0  0 
 11 14  2  0  0  0  0 
 11 19  1  0  0  0  0 
 12 16  1  0  0  0  0 
 12 17  1  0  0  0  0 
 12 27  1  1  0  0  0 
 12 31  1  0  0  0  0 
 14 22  1  0  0  0  0 
 15 16  1  0  0  0  0 
 15 32  1  0  0  0  0 
 15 33  1  0  0  0  0 
 18 34  1  0  0  0  0 
 18 35  1  0  0  0  0 
 18 36  1  0  0  0  0 
 19 23  2  0  0  0  0 
 19 37  1  0  0  0  0 
 20 21  1  0  0  0  0 
 20 24  2  0  0  0  0 
 21 25  2  0  0  0  0 
 21 26  1  0  0  0  0 
 22 38  1  0  0  0  0 
 22 39  1  0  0  0  0 
 22 40  1  0  0  0  0 
 23 41  1  0  0  0  0 
 24 42  1  0  0  0  0 
 25 28  1  0  0  0  0 
 25 43  1  0  0  0  0 
 26 29  2  0  0  0  0 
 26 44  1  0  0  0  0 
 28 30  2  0  0  0  0 
 28 45  1  0  0  0  0 
 29 30  1  0  0  0  0 
 29 46  1  0  0  0  0 
 30 47  1  0  0  0  0 
M  END
> <cdk:Title>
40099516

> <cdk:Remark>
null

> <PUBCHEM_COMPOUND_CID>
40099516

> <PUBCHEM_COMPOUND_CANONICALIZED>
1

> <PUBCHEM_CACTVS_COMPLEXITY>
653

> <PUBCHEM_CACTVS_HBOND_ACCEPTOR>
8

> <PUBCHEM_CACTVS_HBOND_DONOR>
0

> <PUBCHEM_CACTVS_ROTATABLE_BOND>
7

> <PUBCHEM_CACTVS_SUBSKEYS>
AAADceB7sABgAAAAAAAAAAAAAAAAAWLEgAAwAAAAAAAAAAAB/AAAHgQIAAAADQyl3wazlZcMFEi+B65y5ACS+KtlKrgdyDU+LNiMrrqkvRuGOSjmyBOoqY+8gIAOAAAAAAAAAAAAAAAAAAAAAAAAAAAAAA==

> <PUBCHEM_IUPAC_OPENEYE_NAME>
(2R)-4-[[4-methyl-5-(2-methyl-3-furyl)-1,2,4-triazol-3-yl]sulfanyl]-3-oxo-2-(4-phenylthiazol-2-yl)butanenitrile

> <PUBCHEM_IUPAC_CAS_NAME>
(2R)-4-[[4-methyl-5-(2-methyl-3-furanyl)-1,2,4-triazol-3-yl]thio]-3-oxo-2-(4-phenyl-2-thiazolyl)butanenitrile

> <PUBCHEM_IUPAC_NAME>
(2R)-4-[[4-methyl-5-(2-methylfuran-3-yl)-1,2,4-triazol-3-yl]sulfanyl]-3-oxo-2-(4-phenyl-1,3-thiazol-2-yl)butanenitrile

> <PUBCHEM_IUPAC_SYSTEMATIC_NAME>
(2R)-4-[[4-methyl-5-(2-methylfuran-3-yl)-1,2,4-triazol-3-yl]sulfanyl]-3-oxidanylidene-2-(4-phenyl-1,3-thiazol-2-yl)butanenitrile

> <PUBCHEM_IUPAC_TRADITIONAL_NAME>
(2R)-3-keto-4-[[4-methyl-5-(2-methyl-3-furyl)-1,2,4-triazol-3-yl]thio]-2-(4-phenylthiazol-2-yl)butyronitrile

> <PUBCHEM_IUPAC_INCHI>
InChI=1S/C21H17N5O2S2/c1-13-15(8-9-28-13)19-24-25-21(26(19)2)30-12-18(27)16(10-22)20-23-17(11-29-20)14-6-4-3-5-7-14/h3-9,11,16H,12H2,1-2H3/t16-/m1/s1

> <PUBCHEM_IUPAC_INCHIKEY>
JUHGXIDEGKCTCP-MRXNPFEDSA-N

> <PUBCHEM_XLOGP3_AA>
3.5

> <PUBCHEM_EXACT_MASS>
435.082367

> <PUBCHEM_MOLECULAR_FORMULA>
C21H17N5O2S2

> <PUBCHEM_MOLECULAR_WEIGHT>
435.52198

> <PUBCHEM_OPENEYE_CAN_SMILES>
CC1=C(C=CO1)C2=NN=C(N2C)SCC(=O)C(C#N)C3=NC(=CS3)C4=CC=CC=C4

> <PUBCHEM_OPENEYE_ISO_SMILES>
CC1=C(C=CO1)C2=NN=C(N2C)SCC(=O)[C@@H](C#N)C3=NC(=CS3)C4=CC=CC=C4

> <PUBCHEM_CACTVS_TPSA>
151

> <PUBCHEM_MONOISOTOPIC_WEIGHT>
435.082367

> <PUBCHEM_TOTAL_CHARGE>
0

> <PUBCHEM_HEAVY_ATOM_COUNT>
30

> <PUBCHEM_ATOM_DEF_STEREO_COUNT>
1

> <PUBCHEM_ATOM_UDEF_STEREO_COUNT>
0

> <PUBCHEM_BOND_DEF_STEREO_COUNT>
0

> <PUBCHEM_BOND_UDEF_STEREO_COUNT>
0

> <PUBCHEM_ISOTOPIC_ATOM_COUNT>
0

> <PUBCHEM_COMPONENT_COUNT>
1

> <PUBCHEM_CACTVS_TAUTO_COUNT>
5

> <PUBCHEM_COORDINATE_TYPE>
1

> <PUBCHEM_BONDANNOTATIONS>
11  14  8

$$$$
40099516
  CDK     1229141458

 47 50  0  0  0  0  0  0  0  0999 V2000
    3.7281    1.5486    0.0000 S   0  0  0  0  0  0  0  0  0  0  0  0
    2.3660   -1.8965    0.0000 S   0  0  0  0  0  0  0  0  0  0  0  0
    5.3159    6.4353    0.0000 O   0  0  0  0  0  0  0  0  0  0  0  0
    2.5526   -0.0694    0.0000 O   0  0  0  0  0  0  0  0  0  0  0  0
    4.0069    3.3087    0.0000 N   0  0  0  0  0  0  0  0  0  0  0  0
    5.6249    3.3087    0.0000 N   0  0  0  0  0  0  0  0  0  0  0  0
    5.3159    2.3576    0.0000 N   0  0  0  0  0  0  0  0  0  0  0  0
    3.6750   -2.8476    0.0000 N   0  0  0  0  0  0  0  0  0  0  0  0
    5.9428   -1.2965    0.0000 N   0  0  0  0  0  0  0  0  0  0  0  0
    4.8159    3.8965    0.0000 C   0  0  0  0  0  0  0  0  0  0  0  0
    4.8159    4.8965    0.0000 C   0  0  0  0  0  0  0  0  0  0  0  0
    3.9538   -1.0875    0.0000 C   0  0  2  0  0  0  0  0  0  0  0  0
    4.3159    2.3576    0.0000 C   0  0  0  0  0  0  0  0  0  0  0  0
    5.6249    5.4843    0.0000 C   0  0  0  0  0  0  0  0  0  0  0  0
    4.1349    0.6351    0.0000 C   0  0  0  0  0  0  0  0  0  0  0  0
    3.5471   -0.1739    0.0000 C   0  0  0  0  0  0  0  0  0  0  0  0
    3.3660   -1.8965    0.0000 C   0  0  0  0  0  0  0  0  0  0  0  0
    3.0558    3.6177    0.0000 C   0  0  0  0  0  0  0  0  0  0  0  0
    4.0069    5.4843    0.0000 C   0  0  0  0  0  0  0  0  0  0  0  0
    2.8660   -3.4353    0.0000 C   0  0  0  0  0  0  0  0  0  0  0  0
    2.8660   -4.4353    0.0000 C   0  0  0  0  0  0  0  0  0  0  0  0
    6.5760    5.1753    0.0000 C   0  0  0  0  0  0  0  0  0  0  0  0
    4.3159    6.4353    0.0000 C   0  0  0  0  0  0  0  0  0  0  0  0
    2.0570   -2.8476    0.0000 C   0  0  0  0  0  0  0  0  0  0  0  0
    3.7320   -4.9353    0.0000 C   0  0  0  0  0  0  0  0  0  0  0  0
    2.0000   -4.9353    0.0000 C   0  0  0  0  0  0  0  0  0  0  0  0
    4.9483   -1.1920    0.0000 C   0  0  0  0  0  0  0  0  0  0  0  0
    3.7320   -5.9353    0.0000 C   0  0  0  0  0  0  0  0  0  0  0  0
    2.0000   -5.9353    0.0000 C   0  0  0  0  0  0  0  0  0  0  0  0
    2.8660   -6.4353    0.0000 C   0  0  0  0  0  0  0  0  0  0  0  0
    4.2060   -1.6539    0.0000 H   0  0  0  0  0  0  0  0  0  0  0  0
    4.5656    0.1891    0.0000 H   0  0  0  0  0  0  0  0  0  0  0  0
    4.6489    0.9818    0.0000 H   0  0  0  0  0  0  0  0  0  0  0  0
    3.2474    4.2074    0.0000 H   0  0  0  0  0  0  0  0  0  0  0  0
    2.4662    3.8093    0.0000 H   0  0  0  0  0  0  0  0  0  0  0  0
    2.8642    3.0281    0.0000 H   0  0  0  0  0  0  0  0  0  0  0  0
    3.4172    5.2927    0.0000 H   0  0  0  0  0  0  0  0  0  0  0  0
    6.3844    4.5856    0.0000 H   0  0  0  0  0  0  0  0  0  0  0  0
    7.1656    4.9837    0.0000 H   0  0  0  0  0  0  0  0  0  0  0  0
    6.7676    5.7649    0.0000 H   0  0  0  0  0  0  0  0  0  0  0  0
    3.9515    6.9369    0.0000 H   0  0  0  0  0  0  0  0  0  0  0  0
    1.4674   -3.0391    0.0000 H   0  0  0  0  0  0  0  0  0  0  0  0
    4.2690   -4.6253    0.0000 H   0  0  0  0  0  0  0  0  0  0  0  0
    1.4631   -4.6253    0.0000 H   0  0  0  0  0  0  0  0  0  0  0  0
    4.2690   -6.2453    0.0000 H   0  0  0  0  0  0  0  0  0  0  0  0
    1.4631   -6.2453    0.0000 H   0  0  0  0  0  0  0  0  0  0  0  0
    2.8660   -7.0553    0.0000 H   0  0  0  0  0  0  0  0  0  0  0  0
  1 13  1  0  0  0  0 
  1 15  1  0  0  0  0 
  2 17  1  0  0  0  0 
  2 24  1  0  0  0  0 
  3 14  1  0  0  0  0 
  3 23  1  0  0  0  0 
  4 16  2  0  0  0  0 
  5 10  1  0  0  0  0 
  5 13  1  0  0  0  0 
  5 18  1  0  0  0  0 
  6  7  1  0  0  0  0 
  6 10  2  0  0  0  0 
  7 13  2  0  0  0  0 
  8 17  2  0  0  0  0 
  8 20  1  0  0  0  0 
  9 27  3  0  0  0  0 
 10 11  1  0  0  0  0 
 11 14  2  0  0  0  0 
 11 19  1  0  0  0  0 
 12 16  1  0  0  0  0 
 12 17  1  0  0  0  0 
 12 27  1  1  0  0  0 
 12 31  1  0  0  0  0 
 14 22  1  0  0  0  0 
 15 16  1  0  0  0  0 
 15 32  1  0  0  0  0 
 15 33  1  0  0  0  0 
 18 34  1  0  0  0  0 
 18 35  1  0  0  0  0 
 18 36  1  0  0  0  0 
 19 23  2  0  0  0  0 
 19 37  1  0  0  0  0 
 20 21  1  0  0  0  0 
 20 24  2  0  0  0  0 
 21 25  2  0  0  0  0 
 21 26  1  0  0  0  0 
 22 38  1  0  0  0  0 
 22 39  1  0  0  0  0 
 22 40  1  0  0  0  0 
 23 41  1  0  0  0  0 
 24 42  1  0  0  0  0 
 25 28  1  0  0  0  0 
 25 43  1  0  0  0  0 
 26 29  2  0  0  0  0 
 26 44  1  0  0  0  0 
 28 30  2  0  0  0  0 
 28 45  1  0  0  0  0 
 29 30  1  0  0  0  0 
 29 46  1  0  0  0  0 
 30 47  1  0  0  0  0 
M  END
> <cdk:Title>
40099516

> <cdk:Remark>
null

> <PUBCHEM_COMPOUND_CID>
40099516

> <PUBCHEM_COMPOUND_CANONICALIZED>
1

> <PUBCHEM_CACTVS_COMPLEXITY>
653

> <PUBCHEM_CACTVS_HBOND_ACCEPTOR>
8

> <PUBCHEM_CACTVS_HBOND_DONOR>
0

> <PUBCHEM_CACTVS_ROTATABLE_BOND>
7

> <PUBCHEM_CACTVS_SUBSKEYS>
AAADceB7sABgAAAAAAAAAAAAAAAAAWLEgAAwAAAAAAAAAAAB/AAAHgQIAAAADQyl3wazlZcMFEi+B65y5ACS+KtlKrgdyDU+LNiMrrqkvRuGOSjmyBOoqY+8gIAOAAAAAAAAAAAAAAAAAAAAAAAAAAAAAA==

> <PUBCHEM_IUPAC_OPENEYE_NAME>
(2R)-4-[[4-methyl-5-(2-methyl-3-furyl)-1,2,4-triazol-3-yl]sulfanyl]-3-oxo-2-(4-phenylthiazol-2-yl)butanenitrile

> <PUBCHEM_IUPAC_CAS_NAME>
(2R)-4-[[4-methyl-5-(2-methyl-3-furanyl)-1,2,4-triazol-3-yl]thio]-3-oxo-2-(4-phenyl-2-thiazolyl)butanenitrile

> <PUBCHEM_IUPAC_NAME>
(2R)-4-[[4-methyl-5-(2-methylfuran-3-yl)-1,2,4-triazol-3-yl]sulfanyl]-3-oxo-2-(4-phenyl-1,3-thiazol-2-yl)butanenitrile

> <PUBCHEM_IUPAC_SYSTEMATIC_NAME>
(2R)-4-[[4-methyl-5-(2-methylfuran-3-yl)-1,2,4-triazol-3-yl]sulfanyl]-3-oxidanylidene-2-(4-phenyl-1,3-thiazol-2-yl)butanenitrile

> <PUBCHEM_IUPAC_TRADITIONAL_NAME>
(2R)-3-keto-4-[[4-methyl-5-(2-methyl-3-furyl)-1,2,4-triazol-3-yl]thio]-2-(4-phenylthiazol-2-yl)butyronitrile

> <PUBCHEM_IUPAC_INCHI>
InChI=1S/C21H17N5O2S2/c1-13-15(8-9-28-13)19-24-25-21(26(19)2)30-12-18(27)16(10-22)20-23-17(11-29-20)14-6-4-3-5-7-14/h3-9,11,16H,12H2,1-2H3/t16-/m1/s1

> <PUBCHEM_IUPAC_INCHIKEY>
JUHGXIDEGKCTCP-MRXNPFEDSA-N

> <PUBCHEM_XLOGP3_AA>
3.5

> <PUBCHEM_EXACT_MASS>
435.082367

> <PUBCHEM_MOLECULAR_FORMULA>
C21H17N5O2S2

> <PUBCHEM_MOLECULAR_WEIGHT>
435.52198

> <PUBCHEM_OPENEYE_CAN_SMILES>
CC1=C(C=CO1)C2=NN=C(N2C)SCC(=O)C(C#N)C3=NC(=CS3)C4=CC=CC=C4

> <PUBCHEM_OPENEYE_ISO_SMILES>
CC1=C(C=CO1)C2=NN=C(N2C)SCC(=O)[C@@H](C#N)C3=NC(=CS3)C4=CC=CC=C4

> <PUBCHEM_CACTVS_TPSA>
151

> <PUBCHEM_MONOISOTOPIC_WEIGHT>
435.082367

> <PUBCHEM_TOTAL_CHARGE>
0

> <PUBCHEM_HEAVY_ATOM_COUNT>
30

> <PUBCHEM_ATOM_DEF_STEREO_COUNT>
1

> <PUBCHEM_ATOM_UDEF_STEREO_COUNT>
0

> <PUBCHEM_BOND_DEF_STEREO_COUNT>
0

> <PUBCHEM_BOND_UDEF_STEREO_COUNT>
0

> <PUBCHEM_ISOTOPIC_ATOM_COUNT>
0

> <PUBCHEM_COMPONENT_COUNT>
1

> <PUBCHEM_CACTVS_TAUTO_COUNT>
5

> <PUBCHEM_COORDINATE_TYPE>
1

> <PUBCHEM_BONDANNOTATIONS>
11  14  8

$$$$
21056172
  CDK     1229141458

 58 61  0  0  0  0  0  0  0  0999 V2000
    4.5981   -0.2500    0.0000 O   0  0  0  0  0  0  0  0  0  0  0  0
    3.7320   -1.7500    0.0000 N   0  0  0  0  0  0  0  0  0  0  0  0
    6.3301    0.7500    0.0000 C   0  0  0  0  0  0  0  0  0  0  0  0
    6.3301   -0.2500    0.0000 C   0  0  0  0  0  0  0  0  0  0  0  0
    6.3301    1.7500    0.0000 C   0  0  0  0  0  0  0  0  0  0  0  0
    7.3301    0.7500    0.0000 C   0  0  0  0  0  0  0  0  0  0  0  0
    5.3301    0.7500    0.0000 C   0  0  0  0  0  0  0  0  0  0  0  0
    7.1962   -0.7500    0.0000 C   0  0  0  0  0  0  0  0  0  0  0  0
    5.4641   -0.7500    0.0000 C   0  0  0  0  0  0  0  0  0  0  0  0
    7.1962   -1.7500    0.0000 C   0  0  0  0  0  0  0  0  0  0  0  0
    7.8301   -0.1160    0.0000 C   0  0  0  0  0  0  0  0  0  0  0  0
    7.1962    2.2500    0.0000 C   0  0  0  0  0  0  0  0  0  0  0  0
    7.8301    1.6160    0.0000 C   0  0  0  0  0  0  0  0  0  0  0  0
    5.4641    2.2500    0.0000 C   0  0  0  0  0  0  0  0  0  0  0  0
    5.4641   -1.7500    0.0000 C   0  0  0  0  0  0  0  0  0  0  0  0
    6.3301   -2.2500    0.0000 C   0  0  0  0  0  0  0  0  0  0  0  0
    8.0622   -2.2500    0.0000 C   0  0  0  0  0  0  0  0  0  0  0  0
    8.8301   -0.1160    0.0000 C   0  0  0  0  0  0  0  0  0  0  0  0
    7.1962    3.2500    0.0000 C   0  0  0  0  0  0  0  0  0  0  0  0
    8.8301    1.6160    0.0000 C   0  0  0  0  0  0  0  0  0  0  0  0
    5.4641    3.2500    0.0000 C   0  0  0  0  0  0  0  0  0  0  0  0
    4.5981   -2.2500    0.0000 C   0  0  0  0  0  0  0  0  0  0  0  0
    9.3301    0.7500    0.0000 C   0  0  0  0  0  0  0  0  0  0  0  0
    6.3301    3.7500    0.0000 C   0  0  0  0  0  0  0  0  0  0  0  0
    8.0622   -3.2500    0.0000 C   0  0  0  0  0  0  0  0  0  0  0  0
    8.9282   -1.7500    0.0000 C   0  0  0  0  0  0  0  0  0  0  0  0
    8.9282   -3.7500    0.0000 C   0  0  0  0  0  0  0  0  0  0  0  0
    9.7942   -2.2500    0.0000 C   0  0  0  0  0  0  0  0  0  0  0  0
    2.8660   -2.2500    0.0000 C   0  0  0  0  0  0  0  0  0  0  0  0
    9.7942   -3.2500    0.0000 C   0  0  0  0  0  0  0  0  0  0  0  0
    2.0000   -1.7500    0.0000 C   0  0  0  0  0  0  0  0  0  0  0  0
    5.3301    1.3700    0.0000 H   0  0  0  0  0  0  0  0  0  0  0  0
    4.7101    0.7500    0.0000 H   0  0  0  0  0  0  0  0  0  0  0  0
    5.3301    0.1300    0.0000 H   0  0  0  0  0  0  0  0  0  0  0  0
    7.7331   -0.4400    0.0000 H   0  0  0  0  0  0  0  0  0  0  0  0
    7.7331    1.9400    0.0000 H   0  0  0  0  0  0  0  0  0  0  0  0
    7.5201   -0.6530    0.0000 H   0  0  0  0  0  0  0  0  0  0  0  0
    4.9272    1.9400    0.0000 H   0  0  0  0  0  0  0  0  0  0  0  0
    7.5201    2.1530    0.0000 H   0  0  0  0  0  0  0  0  0  0  0  0
    6.3301   -2.8700    0.0000 H   0  0  0  0  0  0  0  0  0  0  0  0
    9.1401   -0.6530    0.0000 H   0  0  0  0  0  0  0  0  0  0  0  0
    7.7331    3.5600    0.0000 H   0  0  0  0  0  0  0  0  0  0  0  0
    9.1401    2.1530    0.0000 H   0  0  0  0  0  0  0  0  0  0  0  0
    4.9272    3.5600    0.0000 H   0  0  0  0  0  0  0  0  0  0  0  0
    4.5981   -2.8700    0.0000 H   0  0  0  0  0  0  0  0  0  0  0  0
    9.9501    0.7500    0.0000 H   0  0  0  0  0  0  0  0  0  0  0  0
    6.3301    4.3700    0.0000 H   0  0  0  0  0  0  0  0  0  0  0  0
    7.5252   -3.5600    0.0000 H   0  0  0  0  0  0  0  0  0  0  0  0
    8.9282   -1.1300    0.0000 H   0  0  0  0  0  0  0  0  0  0  0  0
    3.7320   -1.1300    0.0000 H   0  0  0  0  0  0  0  0  0  0  0  0
    8.9282   -4.3700    0.0000 H   0  0  0  0  0  0  0  0  0  0  0  0
   10.3312   -1.9400    0.0000 H   0  0  0  0  0  0  0  0  0  0  0  0
    2.4675   -2.7250    0.0000 H   0  0  0  0  0  0  0  0  0  0  0  0
    3.2646   -2.7250    0.0000 H   0  0  0  0  0  0  0  0  0  0  0  0
   10.3312   -3.5600    0.0000 H   0  0  0  0  0  0  0  0  0  0  0  0
    2.3100   -1.2131    0.0000 H   0  0  0  0  0  0  0  0  0  0  0  0
    1.4631   -1.4400    0.0000 H   0  0  0  0  0  0  0  0  0  0  0  0
    1.6900   -2.2869    0.0000 H   0  0  0  0  0  0  0  0  0  0  0  0
  1  9  2  0  0  0  0 
  2 22  1  0  0  0  0 
  2 29  1  0  0  0  0 
  2 50  1  0  0  0  0 
  3  4  1  0  0  0  0 
  3  5  1  0  0  0  0 
  3  6  1  0  0  0  0 
  3  7  1  0  0  0  0 
  4  8  2  0  0  0  0 
  4  9  1  0  0  0  0 
  5 12  2  0  0  0  0 
  5 14  1  0  0  0  0 
  6 11  2  0  0  0  0 
  6 13  1  0  0  0  0 
  7 32  1  0  0  0  0 
  7 33  1  0  0  0  0 
  7 34  1  0  0  0  0 
  8 10  1  0  0  0  0 
  8 35  1  0  0  0  0 
  9 15  1  0  0  0  0 
 10 16  2  0  0  0  0 
 10 17  1  0  0  0  0 
 11 18  1  0  0  0  0 
 11 37  1  0  0  0  0 
 12 19  1  0  0  0  0 
 12 36  1  0  0  0  0 
 13 20  2  0  0  0  0 
 13 39  1  0  0  0  0 
 14 21  2  0  0  0  0 
 14 38  1  0  0  0  0 
 15 16  1  0  0  0  0 
 15 22  2  0  0  0  0 
 16 40  1  0  0  0  0 
 17 25  2  0  0  0  0 
 17 26  1  0  0  0  0 
 18 23  2  0  0  0  0 
 18 41  1  0  0  0  0 
 19 24  2  0  0  0  0 
 19 42  1  0  0  0  0 
 20 23  1  0  0  0  0 
 20 43  1  0  0  0  0 
 21 24  1  0  0  0  0 
 21 44  1  0  0  0  0 
 22 45  1  0  0  0  0 
 23 46  1  0  0  0  0 
 24 47  1  0  0  0  0 
 25 27  1  0  0  0  0 
 25 48  1  0  0  0  0 
 26 28  2  0  0  0  0 
 26 49  1  0  0  0  0 
 27 30  2  0  0  0  0 
 27 51  1  0  0  0  0 
 28 30  1  0  0  0  0 
 28 52  1  0  0  0  0 
 29 31  1  0  0  0  0 
 29 53  1  0  0  0  0 
 29 54  1  0  0  0  0 
 30 55  1  0  0  0  0 
 31 56  1  0  0  0  0 
 31 57  1  0  0  0  0 
 31 58  1  0  0  0  0 
M  END
> <cdk:Title>
21056172

> <cdk:Remark>
null

> <PUBCHEM_COMPOUND_CID>
21056172

> <PUBCHEM_COMPOUND_CANONICALIZED>
1

> <PUBCHEM_CACTVS_COMPLEXITY>
691

> <PUBCHEM_CACTVS_HBOND_ACCEPTOR>
2

> <PUBCHEM_CACTVS_HBOND_DONOR>
1

> <PUBCHEM_CACTVS_ROTATABLE_BOND>
6

> <PUBCHEM_CACTVS_SUBSKEYS>
AAADceB6IAAAAAAAAAAAAAAAAAAAAAAAAAAwYMEAAAAAAAABUAAAHgAQAAAADgTBmAQyAILAAACIAqBWQAACAAAgAAAIiIEIAMgIIDKAERCAIAAgkAAIiccIiMCPgAAAAAAAAAAAAAAAAAAAAAAAAAAAAA==

> <PUBCHEM_IUPAC_OPENEYE_NAME>
(6Z)-2-(1,1-diphenylethyl)-6-(ethylaminomethylene)-4-phenyl-cyclohexa-2,4-dien-1-one

> <PUBCHEM_IUPAC_CAS_NAME>
(6Z)-2-(1,1-diphenylethyl)-6-(ethylaminomethylidene)-4-phenyl-1-cyclohexa-2,4-dienone

> <PUBCHEM_IUPAC_NAME>
(6Z)-2-(1,1-diphenylethyl)-6-(ethylaminomethylidene)-4-phenylcyclohexa-2,4-dien-1-one

> <PUBCHEM_IUPAC_SYSTEMATIC_NAME>
(6Z)-2-(1,1-diphenylethyl)-6-(ethylaminomethylidene)-4-phenyl-cyclohexa-2,4-dien-1-one

> <PUBCHEM_IUPAC_TRADITIONAL_NAME>
(6Z)-2-(1,1-diphenylethyl)-6-(ethylaminomethylene)-4-phenyl-cyclohexa-2,4-dien-1-one

> <PUBCHEM_IUPAC_INCHI>
InChI=1S/C29H27NO/c1-3-30-21-24-19-23(22-13-7-4-8-14-22)20-27(28(24)31)29(2,25-15-9-5-10-16-25)26-17-11-6-12-18-26/h4-21,30H,3H2,1-2H3/b24-21-

> <PUBCHEM_IUPAC_INCHIKEY>
VHWGTBMGMRAGEZ-FLFQWRMESA-N

> <PUBCHEM_XLOGP3_AA>
7.3

> <PUBCHEM_EXACT_MASS>
405.209264

> <PUBCHEM_MOLECULAR_FORMULA>
C29H27NO

> <PUBCHEM_MOLECULAR_WEIGHT>
405.53078

> <PUBCHEM_OPENEYE_CAN_SMILES>
CCNC=C1C=C(C=C(C1=O)C(C)(C2=CC=CC=C2)C3=CC=CC=C3)C4=CC=CC=C4

> <PUBCHEM_OPENEYE_ISO_SMILES>
CCN/C=C\1/C=C(C=C(C1=O)C(C)(C2=CC=CC=C2)C3=CC=CC=C3)C4=CC=CC=C4

> <PUBCHEM_CACTVS_TPSA>
29.1

> <PUBCHEM_MONOISOTOPIC_WEIGHT>
405.209264

> <PUBCHEM_TOTAL_CHARGE>
0

> <PUBCHEM_HEAVY_ATOM_COUNT>
31

> <PUBCHEM_ATOM_DEF_STEREO_COUNT>
0

> <PUBCHEM_ATOM_UDEF_STEREO_COUNT>
0

> <PUBCHEM_BOND_DEF_STEREO_COUNT>
1

> <PUBCHEM_BOND_UDEF_STEREO_COUNT>
0

> <PUBCHEM_ISOTOPIC_ATOM_COUNT>
0

> <PUBCHEM_COMPONENT_COUNT>
1

> <PUBCHEM_CACTVS_TAUTO_COUNT>
4

> <PUBCHEM_COORDINATE_TYPE>
1

> <PUBCHEM_BONDANNOTATIONS>
11  18  8

$$$$
