
  CDK     0202151410

 14 13  0  0  0  0  0  0  0  0999 V2000
    3.5000    1.4330    0.0000 O   0  0  0  0  0  0  0  0  0  0  0  0
    5.0000    0.5670    0.0000 N   0  0  0  0  0  0  0  0  0  0  0  0
    3.5000   -0.2990    0.0000 C   0  0  3  0  0  0  0  0  0  0  0  0
    4.3660   -0.7990    0.0000 C   0  0  0  0  0  0  0  0  0  0  0  0
    2.6340   -0.7990    0.0000 C   0  0  0  0  0  0  0  0  0  0  0  0
    3.0000    0.5670    0.0000 C   0  0  0  0  0  0  0  0  0  0  0  0
    4.0000    0.5670    0.0000 C   0  0  0  0  0  0  0  0  0  0  0  0
    5.5000   -0.2990    0.0000 C   0  0  0  0  0  0  0  0  0  0  0  0
    5.5000    1.4330    0.0000 C   0  0  0  0  0  0  0  0  0  0  0  0
    6.5000   -0.2990    0.0000 C   0  0  0  0  0  0  0  0  0  0  0  0
    5.0000   -1.1651    0.0000 C   0  0  0  0  0  0  0  0  0  0  0  0
    6.5000    1.4330    0.0000 C   0  0  0  0  0  0  0  0  0  0  0  0
    7.0000    2.2990    0.0000 C   0  0  0  0  0  0  0  0  0  0  0  0
    7.0000    0.5670    0.0000 C   0  0  0  0  0  0  0  0  0  0  0  0
  1  7  1  0  0  0  0 
  2  7  1  0  0  0  0 
  2  8  1  0  0  0  0 
  2  9  1  0  0  0  0 
  3  4  1  0  0  0  0 
  3  5  1  0  0  0  0 
  3  6  1  0  0  0  0 
  3  7  1  0  0  0  0 
  8 10  1  0  0  0  0 
  8 11  1  0  0  0  0 
  9 12  1  0  0  0  0 
 12 13  1  0  0  0  0 
 12 14  1  0  0  0  0 
M  END
> <PUBCHEM_COMPOUND_CID>
63131429

$$$$

  CDK     0202151410

 14 13  0  0  0  0  0  0  0  0999 V2000
    3.5000    1.4330    0.0000 O   0  0  0  0  0  0  0  0  0  0  0  0
    5.0000    0.5670    0.0000 N   0  0  0  0  0  0  0  0  0  0  0  0
    3.5000   -0.2990    0.0000 C   0  0  3  0  0  0  0  0  0  0  0  0
    4.3660   -0.7990    0.0000 C   0  0  0  0  0  0  0  0  0  0  0  0
    2.6340   -0.7990    0.0000 C   0  0  0  0  0  0  0  0  0  0  0  0
    3.0000    0.5670    0.0000 C   0  0  0  0  0  0  0  0  0  0  0  0
    4.0000    0.5670    0.0000 C   0  0  0  0  0  0  0  0  0  0  0  0
    5.5000   -0.2990    0.0000 C   0  0  0  0  0  0  0  0  0  0  0  0
    5.5000    1.4330    0.0000 C   0  0  0  0  0  0  0  0  0  0  0  0
    6.5000   -0.2990    0.0000 C   0  0  0  0  0  0  0  0  0  0  0  0
    5.0000   -1.1651    0.0000 C   0  0  0  0  0  0  0  0  0  0  0  0
    6.5000    1.4330    0.0000 C   0  0  0  0  0  0  0  0  0  0  0  0
    7.0000    2.2990    0.0000 C   0  0  0  0  0  0  0  0  0  0  0  0
    7.0000    0.5670    0.0000 C   0  0  0  0  0  0  0  0  0  0  0  0
  1  7  1  0  0  0  0 
  2  7  1  0  0  0  0 
  2  8  1  0  0  0  0 
  2  9  1  0  0  0  0 
  3  4  1  0  0  0  0 
  3  5  1  0  0  0  0 
  3  6  1  0  0  0  0 
  3  7  1  0  0  0  0 
  8 10  1  0  0  0  0 
  8 11  1  0  0  0  0 
  9 12  1  0  0  0  0 
 12 13  1  0  0  0  0 
 12 14  1  0  0  0  0 
M  END
> <PUBCHEM_COMPOUND_CID>
63131429

$$$$
