53460846
  CDK     0224152114

 60 63  0  0  0  0  0  0  0  0999 V2000
    6.0782   -3.5091    0.0000 O   0  0  0  0  0  0  0  0  0  0  0  0
   10.3586    1.4434    0.0000 O   0  0  0  0  0  0  0  0  0  0  0  0
    4.7102    2.2497    0.0000 O   0  0  0  0  0  0  0  0  0  0  0  0
    4.0261    4.1291    0.0000 O   0  0  0  0  0  0  0  0  0  0  0  0
    8.4741   -2.5091    0.0000 N   0  0  0  0  0  0  0  0  0  0  0  0
    7.8905   -3.3138    0.0000 N   0  0  0  0  0  0  0  0  0  0  0  0
    4.3462   -3.5091    0.0000 N   0  0  0  0  0  0  0  0  0  0  0  0
    3.4802   -1.0091    0.0000 N   0  0  0  0  0  0  0  0  0  0  0  0
    2.3985    3.5367    0.0000 N   0  0  0  0  0  0  0  0  0  0  0  0
    6.9443   -2.0091    0.0000 C   0  0  3  0  0  0  0  0  0  0  0  0
    7.8905   -1.7044    0.0000 C   0  0  3  0  0  0  0  0  0  0  0  0
    6.9443   -3.0091    0.0000 C   0  0  3  0  0  0  0  0  0  0  0  0
    6.0782   -1.5091    0.0000 C   0  0  3  0  0  0  0  0  0  0  0  0
    5.2122   -2.0091    0.0000 C   0  0  0  0  0  0  0  0  0  0  0  0
    8.5075   -0.9174    0.0000 C   0  0  0  0  0  0  0  0  0  0  0  0
    5.7362   -0.5694    0.0000 C   0  0  0  0  0  0  0  0  0  0  0  0
    5.2122   -3.0091    0.0000 C   0  0  0  0  0  0  0  0  0  0  0  0
    8.1345    0.0104    0.0000 C   0  0  0  0  0  0  0  0  0  0  0  0
    9.4975   -1.0583    0.0000 C   0  0  0  0  0  0  0  0  0  0  0  0
    4.7514   -0.3957    0.0000 C   0  0  0  0  0  0  0  0  0  0  0  0
    6.3790    0.1967    0.0000 C   0  0  0  0  0  0  0  0  0  0  0  0
    4.3462   -1.5091    0.0000 C   0  0  0  0  0  0  0  0  0  0  0  0
    8.7515    0.7974    0.0000 C   0  0  0  0  0  0  0  0  0  0  0  0
   10.1146   -0.2713    0.0000 C   0  0  0  0  0  0  0  0  0  0  0  0
    4.4094    0.5440    0.0000 C   0  0  0  0  0  0  0  0  0  0  0  0
    6.0370    1.1364    0.0000 C   0  0  0  0  0  0  0  0  0  0  0  0
    9.7416    0.6565    0.0000 C   0  0  0  0  0  0  0  0  0  0  0  0
    5.0522    1.3100    0.0000 C   0  0  0  0  0  0  0  0  0  0  0  0
   11.3486    1.3025    0.0000 C   0  0  0  0  0  0  0  0  0  0  0  0
    3.7254    2.4233    0.0000 C   0  0  0  0  0  0  0  0  0  0  0  0
   11.9656    2.0895    0.0000 C   0  0  0  0  0  0  0  0  0  0  0  0
   12.9557    1.9486    0.0000 C   0  0  0  0  0  0  0  0  0  0  0  0
    3.3833    3.3630    0.0000 C   0  0  0  0  0  0  0  0  0  0  0  0
    7.0099   -1.3926    0.0000 H   0  0  0  0  0  0  0  0  0  0  0  0
    8.5104   -1.7160    0.0000 H   0  0  0  0  0  0  0  0  0  0  0  0
    7.0099   -3.6256    0.0000 H   0  0  0  0  0  0  0  0  0  0  0  0
    5.4956   -1.2970    0.0000 H   0  0  0  0  0  0  0  0  0  0  0  0
    9.0941   -2.5091    0.0000 H   0  0  0  0  0  0  0  0  0  0  0  0
    8.0831   -3.9031    0.0000 H   0  0  0  0  0  0  0  0  0  0  0  0
    7.5207    0.0978    0.0000 H   0  0  0  0  0  0  0  0  0  0  0  0
    9.7288   -1.6335    0.0000 H   0  0  0  0  0  0  0  0  0  0  0  0
    4.3529   -0.8707    0.0000 H   0  0  0  0  0  0  0  0  0  0  0  0
    6.9896    0.0890    0.0000 H   0  0  0  0  0  0  0  0  0  0  0  0
    4.3462   -4.1291    0.0000 H   0  0  0  0  0  0  0  0  0  0  0  0
    3.8093   -3.1991    0.0000 H   0  0  0  0  0  0  0  0  0  0  0  0
    8.5203    1.3726    0.0000 H   0  0  0  0  0  0  0  0  0  0  0  0
   10.7284   -0.3587    0.0000 H   0  0  0  0  0  0  0  0  0  0  0  0
    3.7988    0.6516    0.0000 H   0  0  0  0  0  0  0  0  0  0  0  0
    6.4355    1.6113    0.0000 H   0  0  0  0  0  0  0  0  0  0  0  0
   11.1560    0.7132    0.0000 H   0  0  0  0  0  0  0  0  0  0  0  0
   11.8955    1.0105    0.0000 H   0  0  0  0  0  0  0  0  0  0  0  0
    3.1148    2.3157    0.0000 H   0  0  0  0  0  0  0  0  0  0  0  0
    3.7254    1.8033    0.0000 H   0  0  0  0  0  0  0  0  0  0  0  0
   12.1582    2.6788    0.0000 H   0  0  0  0  0  0  0  0  0  0  0  0
   11.4187    2.3815    0.0000 H   0  0  0  0  0  0  0  0  0  0  0  0
   12.8683    1.3348    0.0000 H   0  0  0  0  0  0  0  0  0  0  0  0
   13.5695    1.8612    0.0000 H   0  0  0  0  0  0  0  0  0  0  0  0
   13.0430    2.5624    0.0000 H   0  0  0  0  0  0  0  0  0  0  0  0
    2.1865    4.1193    0.0000 H   0  0  0  0  0  0  0  0  0  0  0  0
    2.0000    3.0617    0.0000 H   0  0  0  0  0  0  0  0  0  0  0  0
  1 12  1  0  0  0  0 
  1 17  1  0  0  0  0 
  2 27  1  0  0  0  0 
  2 29  1  0  0  0  0 
  3 28  1  0  0  0  0 
  3 30  1  0  0  0  0 
  4 33  2  0  0  0  0 
  5  6  1  0  0  0  0 
  5 11  1  0  0  0  0 
  5 38  1  0  0  0  0 
  6 12  1  0  0  0  0 
  6 39  1  0  0  0  0 
  7 17  1  0  0  0  0 
  7 44  1  0  0  0  0 
  7 45  1  0  0  0  0 
  8 22  3  0  0  0  0 
  9 33  1  0  0  0  0 
  9 59  1  0  0  0  0 
  9 60  1  0  0  0  0 
 10 11  1  0  0  0  0 
 10 12  1  0  0  0  0 
 10 13  1  0  0  0  0 
 10 34  1  0  0  0  0 
 11 15  1  0  0  0  0 
 11 35  1  0  0  0  0 
 12 36  1  0  0  0  0 
 13 14  1  0  0  0  0 
 13 16  1  0  0  0  0 
 13 37  1  0  0  0  0 
 14 17  2  0  0  0  0 
 14 22  1  0  0  0  0 
 15 18  2  0  0  0  0 
 15 19  1  0  0  0  0 
 16 20  2  0  0  0  0 
 16 21  1  0  0  0  0 
 18 23  1  0  0  0  0 
 18 40  1  0  0  0  0 
 19 24  2  0  0  0  0 
 19 41  1  0  0  0  0 
 20 25  1  0  0  0  0 
 20 42  1  0  0  0  0 
 21 26  2  0  0  0  0 
 21 43  1  0  0  0  0 
 23 27  2  0  0  0  0 
 23 46  1  0  0  0  0 
 24 27  1  0  0  0  0 
 24 47  1  0  0  0  0 
 25 28  2  0  0  0  0 
 25 48  1  0  0  0  0 
 26 28  1  0  0  0  0 
 26 49  1  0  0  0  0 
 29 31  1  0  0  0  0 
 29 50  1  0  0  0  0 
 29 51  1  0  0  0  0 
 30 33  1  0  0  0  0 
 30 52  1  0  0  0  0 
 30 53  1  0  0  0  0 
 31 32  1  0  0  0  0 
 31 54  1  0  0  0  0 
 31 55  1  0  0  0  0 
 32 56  1  0  0  0  0 
 32 57  1  0  0  0  0 
 32 58  1  0  0  0  0 
M  END
> <cdk:Title>
53460846

> <cdk:Remark>
null

> <PUBCHEM_COMPOUND_CID>
53460846

> <PUBCHEM_COMPOUND_CANONICALIZED>
1

> <PUBCHEM_CACTVS_COMPLEXITY>
764

> <PUBCHEM_CACTVS_HBOND_ACCEPTOR>
8

> <PUBCHEM_CACTVS_HBOND_DONOR>
4

> <PUBCHEM_CACTVS_ROTATABLE_BOND>
8

> <PUBCHEM_CACTVS_SUBSKEYS>
AAADceB7uAAAAAAAAAAAAAAAAAAAAWAAAAAwYIAAAAAAAEABQAAAHgAYAAAADSzhmAYyBoBiBACYBiFSUAKiCAAgIAIYqIBGDIkOpiKE8R+LOCDm0BEIqA+Q0PEOoAAAAAAAAABAAAAAAAAAAAAAAAAAAA==

> <PUBCHEM_IUPAC_OPENEYE_NAME>
2-[4-[6-amino-5-cyano-3-(4-propoxyphenyl)-1,2,3,3a,4,7a-hexahydropyrano[2,3-c]pyrazol-4-yl]phenoxy]acetamide

> <PUBCHEM_IUPAC_CAS_NAME>
2-[4-[6-amino-5-cyano-3-(4-propoxyphenyl)-1,2,3,3a,4,7a-hexahydropyrano[2,3-c]pyrazol-4-yl]phenoxy]acetamide

> <PUBCHEM_IUPAC_NAME>
2-[4-[6-amino-5-cyano-3-(4-propoxyphenyl)-1,2,3,3a,4,7a-hexahydropyrano[2,3-c]pyrazol-4-yl]phenoxy]acetamide

> <PUBCHEM_IUPAC_SYSTEMATIC_NAME>
2-[4-[6-azanyl-5-cyano-3-(4-propoxyphenyl)-1,2,3,3a,4,7a-hexahydropyrano[2,3-c]pyrazol-4-yl]phenoxy]ethanamide

> <PUBCHEM_IUPAC_TRADITIONAL_NAME>
2-[4-[6-amino-5-cyano-3-(4-propoxyphenyl)-1,2,3,3a,4,7a-hexahydropyrano[2,3-c]pyrazol-4-yl]phenoxy]acetamide

> <PUBCHEM_IUPAC_INCHI>
InChI=1S/C24H27N5O4/c1-2-11-31-16-9-5-15(6-10-16)22-21-20(18(12-25)23(27)33-24(21)29-28-22)14-3-7-17(8-4-14)32-13-19(26)30/h3-10,20-22,24,28-29H,2,11,13,27H2,1H3,(H2,26,30)

> <PUBCHEM_IUPAC_INCHIKEY>
XPTNPHOHNZQKIU-UHFFFAOYSA-N

> <PUBCHEM_XLOGP3_AA>
2.6

> <PUBCHEM_EXACT_MASS>
449.206304

> <PUBCHEM_MOLECULAR_FORMULA>
C24H27N5O4

> <PUBCHEM_MOLECULAR_WEIGHT>
449.50228

> <PUBCHEM_OPENEYE_CAN_SMILES>
CCCOC1=CC=C(C=C1)C2C3C(C(=C(OC3NN2)N)C#N)C4=CC=C(C=C4)OCC(=O)N

> <PUBCHEM_OPENEYE_ISO_SMILES>
CCCOC1=CC=C(C=C1)C2C3C(C(=C(OC3NN2)N)C#N)C4=CC=C(C=C4)OCC(=O)N

> <PUBCHEM_CACTVS_TPSA>
145

> <PUBCHEM_MONOISOTOPIC_WEIGHT>
449.206304

> <PUBCHEM_TOTAL_CHARGE>
0

> <PUBCHEM_HEAVY_ATOM_COUNT>
33

> <PUBCHEM_ATOM_DEF_STEREO_COUNT>
0

> <PUBCHEM_ATOM_UDEF_STEREO_COUNT>
4

> <PUBCHEM_BOND_DEF_STEREO_COUNT>
0

> <PUBCHEM_BOND_UDEF_STEREO_COUNT>
0

> <PUBCHEM_ISOTOPIC_ATOM_COUNT>
0

> <PUBCHEM_COMPONENT_COUNT>
1

> <PUBCHEM_CACTVS_TAUTO_COUNT>
6

> <PUBCHEM_COORDINATE_TYPE>
1

> <PUBCHEM_BONDANNOTATIONS>
10  13  3

$$$$
