
  CDK     0202151413

 14 13  0  0  0  0  0  0  0  0999 V2000
    4.7540   -2.0194    0.0000 O   0  0  0  0  0  0  0  0  0  0  0  0
    6.4860   -2.0194    0.0000 O   0  0  0  0  0  0  0  0  0  0  0  0
    6.4860    1.9806    0.0000 N   0  0  0  0  0  0  0  0  0  0  0  0
    5.6200   -0.5194    0.0000 C   0  0  3  0  0  0  0  0  0  0  0  0
    6.4860    0.9806    0.0000 C   0  0  3  0  0  0  0  0  0  0  0  0
    5.6200    0.4806    0.0000 C   0  0  0  0  0  0  0  0  0  0  0  0
    4.6200   -0.5194    0.0000 C   0  0  0  0  0  0  0  0  0  0  0  0
    7.3520    0.4806    0.0000 C   0  0  0  0  0  0  0  0  0  0  0  0
    5.6770    2.5684    0.0000 C   0  0  0  0  0  0  0  0  0  0  0  0
    6.6200   -0.5194    0.0000 C   0  0  0  0  0  0  0  0  0  0  0  0
    4.1200    0.3466    0.0000 C   0  0  3  0  0  0  0  0  0  0  0  0
    7.2950    2.5684    0.0000 C   0  0  0  0  0  0  0  0  0  0  0  0
    5.6200   -1.5194    0.0000 C   0  0  0  0  0  0  0  0  0  0  0  0
    3.1200    0.3466    0.0000 C   0  0  0  0  0  0  0  0  0  0  0  0
  1 13  1  0  0  0  0 
  2 13  1  0  0  0  0 
  3  5  1  0  0  0  0 
  3  9  1  0  0  0  0 
  3 12  1  0  0  0  0 
  4  6  1  0  0  0  0 
  4  7  1  0  0  0  0 
  4 10  1  0  0  0  0 
  4 13  1  0  0  0  0 
  5  6  1  0  0  0  0 
  5  8  1  0  0  0  0 
  7 11  1  0  0  0  0 
 11 14  1  0  0  0  0 
M  END
> <PUBCHEM_COMPOUND_CID>
23379805

$$$$
