33709847
  CDK     1229141458

 66 69  0  0  0  0  0  0  0  0999 V2000
    7.4282   -3.9268    0.0000 F   0  0  0  0  0  0  0  0  0  0  0  0
    7.6279    1.3244    0.0000 O   0  0  0  0  0  0  0  0  0  0  0  0
   11.2439   -1.0310    0.0000 O   0  0  0  0  0  0  0  0  0  0  0  0
    9.1279    2.1904    0.0000 O   0  0  0  0  0  0  0  0  0  0  0  0
    3.7320    4.1904    0.0000 O   0  0  0  0  0  0  0  0  0  0  0  0
    2.0000    1.1904    0.0000 O   0  0  0  0  0  0  0  0  0  0  0  0
    9.4643   -1.1243    0.0000 N   0  0  0  0  0  0  0  0  0  0  0  0
    5.5443    2.9951    0.0000 N   0  0  0  0  0  0  0  0  0  0  0  0
    3.7320    1.1904    0.0000 N   0  0  0  0  0  0  0  0  0  0  0  0
    5.5443    1.3857    0.0000 N   0  0  0  0  0  0  0  0  0  0  0  0
    2.8660    2.6904    0.0000 N   0  0  0  0  0  0  0  0  0  0  0  0
    9.1279    0.4584    0.0000 C   0  0  2  0  0  0  0  0  0  0  0  0
    8.7212   -0.4552    0.0000 C   0  0  0  0  0  0  0  0  0  0  0  0
   10.1224    0.3538    0.0000 C   0  0  0  0  0  0  0  0  0  0  0  0
   10.3303   -0.6243    0.0000 C   0  0  0  0  0  0  0  0  0  0  0  0
    8.6279    1.3244    0.0000 C   0  0  0  0  0  0  0  0  0  0  0  0
    4.5981    2.6904    0.0000 C   0  0  0  0  0  0  0  0  0  0  0  0
    6.1279    2.1904    0.0000 C   0  0  0  0  0  0  0  0  0  0  0  0
    4.5981    1.6904    0.0000 C   0  0  0  0  0  0  0  0  0  0  0  0
    9.3598   -2.1188    0.0000 C   0  0  0  0  0  0  0  0  0  0  0  0
    5.8550    3.9457    0.0000 C   0  0  0  0  0  0  0  0  0  0  0  0
    7.1279    2.1904    0.0000 C   0  0  0  0  0  0  0  0  0  0  0  0
    3.7320    0.1904    0.0000 C   0  0  0  0  0  0  0  0  0  0  0  0
    2.8660   -0.3096    0.0000 C   0  0  0  0  0  0  0  0  0  0  0  0
    3.7320    3.1904    0.0000 C   0  0  0  0  0  0  0  0  0  0  0  0
    6.8335    4.1519    0.0000 C   0  0  0  0  0  0  0  0  0  0  0  0
    2.8660    1.6904    0.0000 C   0  0  0  0  0  0  0  0  0  0  0  0
    8.4462   -2.5256    0.0000 C   0  0  0  0  0  0  0  0  0  0  0  0
   10.1688   -2.7066    0.0000 C   0  0  0  0  0  0  0  0  0  0  0  0
    2.8660   -1.3096    0.0000 C   0  0  0  0  0  0  0  0  0  0  0  0
    7.1441    5.1024    0.0000 C   0  0  0  0  0  0  0  0  0  0  0  0
    8.3417   -3.5201    0.0000 C   0  0  0  0  0  0  0  0  0  0  0  0
   10.0643   -3.7011    0.0000 C   0  0  0  0  0  0  0  0  0  0  0  0
    9.1507   -4.1079    0.0000 C   0  0  0  0  0  0  0  0  0  0  0  0
    2.0000   -1.8096    0.0000 C   0  0  0  0  0  0  0  0  0  0  0  0
    9.0462   -5.1024    0.0000 C   0  0  0  0  0  0  0  0  0  0  0  0
    8.5087    0.4259    0.0000 H   0  0  0  0  0  0  0  0  0  0  0  0
    8.1842   -0.1452    0.0000 H   0  0  0  0  0  0  0  0  0  0  0  0
    8.3567   -0.9568    0.0000 H   0  0  0  0  0  0  0  0  0  0  0  0
   10.7390    0.4186    0.0000 H   0  0  0  0  0  0  0  0  0  0  0  0
   10.1224    0.9738    0.0000 H   0  0  0  0  0  0  0  0  0  0  0  0
    5.8344    4.5653    0.0000 H   0  0  0  0  0  0  0  0  0  0  0  0
    5.2411    4.0330    0.0000 H   0  0  0  0  0  0  0  0  0  0  0  0
    7.7105    2.4025    0.0000 H   0  0  0  0  0  0  0  0  0  0  0  0
    7.0202    2.8010    0.0000 H   0  0  0  0  0  0  0  0  0  0  0  0
    3.9441   -0.3922    0.0000 H   0  0  0  0  0  0  0  0  0  0  0  0
    4.3426    0.2981    0.0000 H   0  0  0  0  0  0  0  0  0  0  0  0
    2.6540    0.2730    0.0000 H   0  0  0  0  0  0  0  0  0  0  0  0
    2.2554   -0.4173    0.0000 H   0  0  0  0  0  0  0  0  0  0  0  0
    6.8540    3.5322    0.0000 H   0  0  0  0  0  0  0  0  0  0  0  0
    7.4473    4.0645    0.0000 H   0  0  0  0  0  0  0  0  0  0  0  0
    7.9446   -2.1612    0.0000 H   0  0  0  0  0  0  0  0  0  0  0  0
   10.7352   -2.4544    0.0000 H   0  0  0  0  0  0  0  0  0  0  0  0
    2.3291    3.0004    0.0000 H   0  0  0  0  0  0  0  0  0  0  0  0
    3.0781   -1.8922    0.0000 H   0  0  0  0  0  0  0  0  0  0  0  0
    3.4766   -1.2019    0.0000 H   0  0  0  0  0  0  0  0  0  0  0  0
    7.7334    4.9098    0.0000 H   0  0  0  0  0  0  0  0  0  0  0  0
    7.3367    5.6917    0.0000 H   0  0  0  0  0  0  0  0  0  0  0  0
    6.5548    5.2950    0.0000 H   0  0  0  0  0  0  0  0  0  0  0  0
   10.5659   -4.0656    0.0000 H   0  0  0  0  0  0  0  0  0  0  0  0
    1.6900   -1.2726    0.0000 H   0  0  0  0  0  0  0  0  0  0  0  0
    1.4631   -2.1196    0.0000 H   0  0  0  0  0  0  0  0  0  0  0  0
    2.3100   -2.3465    0.0000 H   0  0  0  0  0  0  0  0  0  0  0  0
    8.4296   -5.0376    0.0000 H   0  0  0  0  0  0  0  0  0  0  0  0
    8.9814   -5.7190    0.0000 H   0  0  0  0  0  0  0  0  0  0  0  0
    9.6628   -5.1672    0.0000 H   0  0  0  0  0  0  0  0  0  0  0  0
  1 32  1  0  0  0  0 
  2 16  1  0  0  0  0 
  2 22  1  0  0  0  0 
  3 15  2  0  0  0  0 
  4 16  2  0  0  0  0 
  5 25  2  0  0  0  0 
  6 27  2  0  0  0  0 
  7 13  1  0  0  0  0 
  7 15  1  0  0  0  0 
  7 20  1  0  0  0  0 
  8 17  1  0  0  0  0 
  8 18  1  0  0  0  0 
  8 21  1  0  0  0  0 
  9 19  1  0  0  0  0 
  9 23  1  0  0  0  0 
  9 27  1  0  0  0  0 
 10 18  2  0  0  0  0 
 10 19  1  0  0  0  0 
 11 25  1  0  0  0  0 
 11 27  1  0  0  0  0 
 11 54  1  0  0  0  0 
 12 13  1  0  0  0  0 
 12 14  1  0  0  0  0 
 12 16  1  1  0  0  0 
 12 37  1  0  0  0  0 
 13 38  1  0  0  0  0 
 13 39  1  0  0  0  0 
 14 15  1  0  0  0  0 
 14 40  1  0  0  0  0 
 14 41  1  0  0  0  0 
 17 19  2  0  0  0  0 
 17 25  1  0  0  0  0 
 18 22  1  0  0  0  0 
 20 28  2  0  0  0  0 
 20 29  1  0  0  0  0 
 21 26  1  0  0  0  0 
 21 42  1  0  0  0  0 
 21 43  1  0  0  0  0 
 22 44  1  0  0  0  0 
 22 45  1  0  0  0  0 
 23 24  1  0  0  0  0 
 23 46  1  0  0  0  0 
 23 47  1  0  0  0  0 
 24 30  1  0  0  0  0 
 24 48  1  0  0  0  0 
 24 49  1  0  0  0  0 
 26 31  1  0  0  0  0 
 26 50  1  0  0  0  0 
 26 51  1  0  0  0  0 
 28 32  1  0  0  0  0 
 28 52  1  0  0  0  0 
 29 33  2  0  0  0  0 
 29 53  1  0  0  0  0 
 30 35  1  0  0  0  0 
 30 55  1  0  0  0  0 
 30 56  1  0  0  0  0 
 31 57  1  0  0  0  0 
 31 58  1  0  0  0  0 
 31 59  1  0  0  0  0 
 32 34  2  0  0  0  0 
 33 34  1  0  0  0  0 
 33 60  1  0  0  0  0 
 34 36  1  0  0  0  0 
 35 61  1  0  0  0  0 
 35 62  1  0  0  0  0 
 35 63  1  0  0  0  0 
 36 64  1  0  0  0  0 
 36 65  1  0  0  0  0 
 36 66  1  0  0  0  0 
M  END
> <cdk:Title>
33709847

> <cdk:Remark>
null

> <PUBCHEM_COMPOUND_CID>
33709847

> <PUBCHEM_COMPOUND_CANONICALIZED>
1

> <PUBCHEM_CACTVS_COMPLEXITY>
859

> <PUBCHEM_CACTVS_HBOND_ACCEPTOR>
7

> <PUBCHEM_CACTVS_HBOND_DONOR>
1

> <PUBCHEM_CACTVS_ROTATABLE_BOND>
10

> <PUBCHEM_CACTVS_SUBSKEYS>
AAADceB7uQAAAAAAAAAAAAAAAAAAAWLAAAA8QAAAAAAAAFgBwAAAHwAQAAAADQjhnw4z+JfMFACoAyfyfASCgC0nEqAJ2AG4dMiKaDrA2bGXIIhuhyLYyGc3gAAOCAAAAAAAAAAQAAAAAAAAAAAAAAAAAA==

> <PUBCHEM_IUPAC_OPENEYE_NAME>
(3-butyl-2,6-dioxo-7-propyl-purin-8-yl)methyl (3S)-1-(3-fluoro-4-methyl-phenyl)-5-oxo-pyrrolidine-3-carboxylate

> <PUBCHEM_IUPAC_CAS_NAME>
(3S)-1-(3-fluoro-4-methylphenyl)-5-oxo-3-pyrrolidinecarboxylic acid (3-butyl-2,6-dioxo-7-propyl-8-purinyl)methyl ester

> <PUBCHEM_IUPAC_NAME>
(3-butyl-2,6-dioxo-7-propylpurin-8-yl)methyl (3S)-1-(3-fluoro-4-methylphenyl)-5-oxopyrrolidine-3-carboxylate

> <PUBCHEM_IUPAC_SYSTEMATIC_NAME>
[3-butyl-2,6-bis(oxidanylidene)-7-propyl-purin-8-yl]methyl (3S)-1-(3-fluoranyl-4-methyl-phenyl)-5-oxidanylidene-pyrrolidine-3-carboxylate

> <PUBCHEM_IUPAC_TRADITIONAL_NAME>
(3S)-1-(3-fluoro-4-methyl-phenyl)-5-keto-pyrrolidine-3-carboxylic acid (3-butyl-2,6-diketo-7-propyl-purin-8-yl)methyl ester

> <PUBCHEM_IUPAC_INCHI>
InChI=1S/C25H30FN5O5/c1-4-6-10-30-22-21(23(33)28-25(30)35)29(9-5-2)19(27-22)14-36-24(34)16-11-20(32)31(13-16)17-8-7-15(3)18(26)12-17/h7-8,12,16H,4-6,9-11,13-14H2,1-3H3,(H,28,33,35)/t16-/m0/s1

> <PUBCHEM_IUPAC_INCHIKEY>
HLVQTKKVAVAEOU-INIZCTEOSA-N

> <PUBCHEM_XLOGP3_AA>
2.4

> <PUBCHEM_EXACT_MASS>
499.223097

> <PUBCHEM_MOLECULAR_FORMULA>
C25H30FN5O5

> <PUBCHEM_MOLECULAR_WEIGHT>
499.534603

> <PUBCHEM_OPENEYE_CAN_SMILES>
CCCCN1C2=C(C(=O)NC1=O)N(C(=N2)COC(=O)C3CC(=O)N(C3)C4=CC(=C(C=C4)C)F)CCC

> <PUBCHEM_OPENEYE_ISO_SMILES>
CCCCN1C2=C(C(=O)NC1=O)N(C(=N2)COC(=O)[C@H]3CC(=O)N(C3)C4=CC(=C(C=C4)C)F)CCC

> <PUBCHEM_CACTVS_TPSA>
114

> <PUBCHEM_MONOISOTOPIC_WEIGHT>
499.223097

> <PUBCHEM_TOTAL_CHARGE>
0

> <PUBCHEM_HEAVY_ATOM_COUNT>
36

> <PUBCHEM_ATOM_DEF_STEREO_COUNT>
1

> <PUBCHEM_ATOM_UDEF_STEREO_COUNT>
0

> <PUBCHEM_BOND_DEF_STEREO_COUNT>
0

> <PUBCHEM_BOND_UDEF_STEREO_COUNT>
0

> <PUBCHEM_ISOTOPIC_ATOM_COUNT>
0

> <PUBCHEM_COMPONENT_COUNT>
1

> <PUBCHEM_CACTVS_TAUTO_COUNT>
6

> <PUBCHEM_COORDINATE_TYPE>
1

> <PUBCHEM_BONDANNOTATIONS>
10  18  8

$$$$
58956276
  CDK     1229141458

 44 47  0  0  0  0  0  0  0  0999 V2000
    6.3301    2.0000    0.0000 N   0  0  0  0  0  0  0  0  0  0  0  0
    5.4641    0.5000    0.0000 N   0  0  0  0  0  0  0  0  0  0  0  0
    4.5981   -1.0000    0.0000 N   0  0  0  0  0  0  0  0  0  0  0  0
    3.7320    0.5000    0.0000 N   0  0  0  0  0  0  0  0  0  0  0  0
   10.4580    1.0000    0.0000 C   0  0  0  0  0  0  0  0  0  0  0  0
    9.8744    1.8047    0.0000 C   0  0  0  0  0  0  0  0  0  0  0  0
    9.8744    0.1953    0.0000 C   0  0  0  0  0  0  0  0  0  0  0  0
    8.9282    1.5000    0.0000 C   0  0  0  0  0  0  0  0  0  0  0  0
    8.9282    0.5000    0.0000 C   0  0  0  0  0  0  0  0  0  0  0  0
    8.0622    2.0000    0.0000 C   0  0  0  0  0  0  0  0  0  0  0  0
    8.0622    0.0000    0.0000 C   0  0  0  0  0  0  0  0  0  0  0  0
    7.1962    1.5000    0.0000 C   0  0  0  0  0  0  0  0  0  0  0  0
    7.1962    0.5000    0.0000 C   0  0  0  0  0  0  0  0  0  0  0  0
    5.4641    1.5000    0.0000 C   0  0  0  0  0  0  0  0  0  0  0  0
    4.5981    2.0000    0.0000 C   0  0  0  0  0  0  0  0  0  0  0  0
    4.5981    0.0000    0.0000 C   0  0  0  0  0  0  0  0  0  0  0  0
    3.7320    1.5000    0.0000 C   0  0  0  0  0  0  0  0  0  0  0  0
    4.5981    3.0000    0.0000 C   0  0  0  0  0  0  0  0  0  0  0  0
    3.7320   -1.5000    0.0000 C   0  0  0  0  0  0  0  0  0  0  0  0
    3.7320   -2.5000    0.0000 C   0  0  0  0  0  0  0  0  0  0  0  0
    2.8660   -1.0000    0.0000 C   0  0  0  0  0  0  0  0  0  0  0  0
    2.8660   -3.0000    0.0000 C   0  0  0  0  0  0  0  0  0  0  0  0
    2.0000   -1.5000    0.0000 C   0  0  0  0  0  0  0  0  0  0  0  0
    2.0000   -2.5000    0.0000 C   0  0  0  0  0  0  0  0  0  0  0  0
   10.9189    0.5853    0.0000 H   0  0  0  0  0  0  0  0  0  0  0  0
   10.9189    1.4147    0.0000 H   0  0  0  0  0  0  0  0  0  0  0  0
   10.4118    2.1140    0.0000 H   0  0  0  0  0  0  0  0  0  0  0  0
    9.6234    2.3716    0.0000 H   0  0  0  0  0  0  0  0  0  0  0  0
    9.6234   -0.3716    0.0000 H   0  0  0  0  0  0  0  0  0  0  0  0
   10.4118   -0.1140    0.0000 H   0  0  0  0  0  0  0  0  0  0  0  0
    8.0622    2.6200    0.0000 H   0  0  0  0  0  0  0  0  0  0  0  0
    8.0622   -0.6200    0.0000 H   0  0  0  0  0  0  0  0  0  0  0  0
    6.6592    0.1900    0.0000 H   0  0  0  0  0  0  0  0  0  0  0  0
    6.3301    2.6200    0.0000 H   0  0  0  0  0  0  0  0  0  0  0  0
    3.1951    1.8100    0.0000 H   0  0  0  0  0  0  0  0  0  0  0  0
    5.2181    3.0000    0.0000 H   0  0  0  0  0  0  0  0  0  0  0  0
    4.5981    3.6200    0.0000 H   0  0  0  0  0  0  0  0  0  0  0  0
    3.9781    3.0000    0.0000 H   0  0  0  0  0  0  0  0  0  0  0  0
    5.1350   -1.3100    0.0000 H   0  0  0  0  0  0  0  0  0  0  0  0
    4.2690   -2.8100    0.0000 H   0  0  0  0  0  0  0  0  0  0  0  0
    2.8660   -0.3800    0.0000 H   0  0  0  0  0  0  0  0  0  0  0  0
    2.8660   -3.6200    0.0000 H   0  0  0  0  0  0  0  0  0  0  0  0
    1.4631   -1.1900    0.0000 H   0  0  0  0  0  0  0  0  0  0  0  0
    1.4631   -2.8100    0.0000 H   0  0  0  0  0  0  0  0  0  0  0  0
  1 12  1  0  0  0  0 
  1 14  1  0  0  0  0 
  1 34  1  0  0  0  0 
  2 14  2  0  0  0  0 
  2 16  1  0  0  0  0 
  3 16  1  0  0  0  0 
  3 19  1  0  0  0  0 
  3 39  1  0  0  0  0 
  4 16  2  0  0  0  0 
  4 17  1  0  0  0  0 
  5  6  1  0  0  0  0 
  5  7  1  0  0  0  0 
  5 25  1  0  0  0  0 
  5 26  1  0  0  0  0 
  6  8  1  0  0  0  0 
  6 27  1  0  0  0  0 
  6 28  1  0  0  0  0 
  7  9  1  0  0  0  0 
  7 29  1  0  0  0  0 
  7 30  1  0  0  0  0 
  8  9  2  0  0  0  0 
  8 10  1  0  0  0  0 
  9 11  1  0  0  0  0 
 10 12  2  0  0  0  0 
 10 31  1  0  0  0  0 
 11 13  2  0  0  0  0 
 11 32  1  0  0  0  0 
 12 13  1  0  0  0  0 
 13 33  1  0  0  0  0 
 14 15  1  0  0  0  0 
 15 17  2  0  0  0  0 
 15 18  1  0  0  0  0 
 17 35  1  0  0  0  0 
 18 36  1  0  0  0  0 
 18 37  1  0  0  0  0 
 18 38  1  0  0  0  0 
 19 20  2  0  0  0  0 
 19 21  1  0  0  0  0 
 20 22  1  0  0  0  0 
 20 40  1  0  0  0  0 
 21 23  2  0  0  0  0 
 21 41  1  0  0  0  0 
 22 24  2  0  0  0  0 
 22 42  1  0  0  0  0 
 23 24  1  0  0  0  0 
 23 43  1  0  0  0  0 
 24 44  1  0  0  0  0 
M  END
> <cdk:Title>
58956276

> <cdk:Remark>
null

> <PUBCHEM_COMPOUND_CID>
58956276

> <PUBCHEM_COMPOUND_CANONICALIZED>
1

> <PUBCHEM_CACTVS_COMPLEXITY>
395

> <PUBCHEM_CACTVS_HBOND_ACCEPTOR>
4

> <PUBCHEM_CACTVS_HBOND_DONOR>
2

> <PUBCHEM_CACTVS_ROTATABLE_BOND>
4

> <PUBCHEM_CACTVS_SUBSKEYS>
AAADceB7gAAAAAAAAAAAAAAAAAAAAYAAAAA8YIAAAAAAAGAB0AAAHAAQAAAADAjBGgQ/8JbIEACgAjZnZACCgCkxAqAJ2CAoZJiIKOLA2dGEJAhokALIyCcQgIAOiAAAQAAQAAAQAACAACAAAAAACAAAAA==

> <PUBCHEM_IUPAC_OPENEYE_NAME>
N4-indan-5-yl-5-methyl-N2-phenyl-pyrimidine-2,4-diamine

> <PUBCHEM_IUPAC_CAS_NAME>
N4-(2,3-dihydro-1H-inden-5-yl)-5-methyl-N2-phenylpyrimidine-2,4-diamine

> <PUBCHEM_IUPAC_NAME>
4-N-(2,3-dihydro-1H-inden-5-yl)-5-methyl-2-N-phenylpyrimidine-2,4-diamine

> <PUBCHEM_IUPAC_SYSTEMATIC_NAME>
N4-(2,3-dihydro-1H-inden-5-yl)-5-methyl-N2-phenyl-pyrimidine-2,4-diamine

> <PUBCHEM_IUPAC_TRADITIONAL_NAME>
(2-anilino-5-methyl-pyrimidin-4-yl)-indan-5-yl-amine

> <PUBCHEM_IUPAC_INCHI>
InChI=1S/C20H20N4/c1-14-13-21-20(23-17-8-3-2-4-9-17)24-19(14)22-18-11-10-15-6-5-7-16(15)12-18/h2-4,8-13H,5-7H2,1H3,(H2,21,22,23,24)

> <PUBCHEM_IUPAC_INCHIKEY>
GZTHGDAVBNMJIU-UHFFFAOYSA-N

> <PUBCHEM_XLOGP3_AA>
5.2

> <PUBCHEM_EXACT_MASS>
316.168797

> <PUBCHEM_MOLECULAR_FORMULA>
C20H20N4

> <PUBCHEM_MOLECULAR_WEIGHT>
316.3996

> <PUBCHEM_OPENEYE_CAN_SMILES>
CC1=CN=C(N=C1NC2=CC3=C(CCC3)C=C2)NC4=CC=CC=C4

> <PUBCHEM_OPENEYE_ISO_SMILES>
CC1=CN=C(N=C1NC2=CC3=C(CCC3)C=C2)NC4=CC=CC=C4

> <PUBCHEM_CACTVS_TPSA>
49.8

> <PUBCHEM_MONOISOTOPIC_WEIGHT>
316.168797

> <PUBCHEM_TOTAL_CHARGE>
0

> <PUBCHEM_HEAVY_ATOM_COUNT>
24

> <PUBCHEM_ATOM_DEF_STEREO_COUNT>
0

> <PUBCHEM_ATOM_UDEF_STEREO_COUNT>
0

> <PUBCHEM_BOND_DEF_STEREO_COUNT>
0

> <PUBCHEM_BOND_UDEF_STEREO_COUNT>
0

> <PUBCHEM_ISOTOPIC_ATOM_COUNT>
0

> <PUBCHEM_COMPONENT_COUNT>
1

> <PUBCHEM_CACTVS_TAUTO_COUNT>
9

> <PUBCHEM_COORDINATE_TYPE>
1

> <PUBCHEM_BONDANNOTATIONS>
10  12  8

$$$$
20106795
  CDK     1229141458

 54 57  0  0  0  0  0  0  0  0999 V2000
    9.7528   -1.5705    0.0000 S   0  0  0  0  0  0  0  0  0  0  0  0
    6.1599   -2.3342    0.0000 S   0  0  0  0  0  0  0  0  0  0  0  0
   12.3219    0.6406    0.0000 S   0  0  0  0  0  0  0  0  0  0  0  0
    3.0827   -2.9683    0.0000 S   0  0  0  0  0  0  0  0  0  0  0  0
    9.3867    1.4683    0.0000 O   0  0  0  0  0  0  0  0  0  0  0  0
    3.6759   -0.1137    0.0000 O   0  0  0  0  0  0  0  0  0  0  0  0
    7.9575   -1.9577    0.0000 O   0  0  0  0  0  0  0  0  0  0  0  0
   11.1188    1.4683    0.0000 O   0  0  0  0  0  0  0  0  0  0  0  0
    5.2582    0.5908    0.0000 O   0  0  0  0  0  0  0  0  0  0  0  0
    8.4927   -0.3104    0.0000 N   0  0  0  0  0  0  0  0  0  0  0  0
    6.7985   -0.6705    0.0000 N   0  0  0  0  0  0  0  0  0  0  0  0
   10.2528   -0.0317    0.0000 C   0  0  0  0  0  0  0  0  0  0  0  0
    5.0772   -1.1318    0.0000 C   0  0  0  0  0  0  0  0  0  0  0  0
   11.0618   -0.6194    0.0000 C   0  0  0  0  0  0  0  0  0  0  0  0
    4.5772   -1.9978    0.0000 C   0  0  0  0  0  0  0  0  0  0  0  0
    6.0554   -1.3397    0.0000 C   0  0  0  0  0  0  0  0  0  0  0  0
    9.4438   -0.6194    0.0000 C   0  0  0  0  0  0  0  0  0  0  0  0
    3.5827   -2.1023    0.0000 C   0  0  0  0  0  0  0  0  0  0  0  0
   12.0128   -0.3104    0.0000 C   0  0  0  0  0  0  0  0  0  0  0  0
   10.7528   -1.5705    0.0000 C   0  0  0  0  0  0  0  0  0  0  0  0
    5.2463   -2.7409    0.0000 C   0  0  0  0  0  0  0  0  0  0  0  0
    7.7496   -0.9796    0.0000 C   0  0  0  0  0  0  0  0  0  0  0  0
   10.2528    0.9683    0.0000 C   0  0  0  0  0  0  0  0  0  0  0  0
    4.6705   -0.2182    0.0000 C   0  0  0  0  0  0  0  0  0  0  0  0
   12.8219   -0.8982    0.0000 C   0  0  0  0  0  0  0  0  0  0  0  0
    2.9136   -1.3592    0.0000 C   0  0  0  0  0  0  0  0  0  0  0  0
   13.6309   -0.3104    0.0000 C   0  0  0  0  0  0  0  0  0  0  0  0
    2.0000   -1.7659    0.0000 C   0  0  0  0  0  0  0  0  0  0  0  0
   13.3219    0.6406    0.0000 C   0  0  0  0  0  0  0  0  0  0  0  0
    2.1045   -2.7604    0.0000 C   0  0  0  0  0  0  0  0  0  0  0  0
    3.2692    0.7999    0.0000 C   0  0  0  0  0  0  0  0  0  0  0  0
    9.3867    2.4683    0.0000 C   0  0  0  0  0  0  0  0  0  0  0  0
    2.2747    0.9044    0.0000 C   0  0  0  0  0  0  0  0  0  0  0  0
    8.5207    2.9683    0.0000 C   0  0  0  0  0  0  0  0  0  0  0  0
    5.1174   -3.3474    0.0000 H   0  0  0  0  0  0  0  0  0  0  0  0
   11.1172   -2.0721    0.0000 H   0  0  0  0  0  0  0  0  0  0  0  0
    8.3638    0.2960    0.0000 H   0  0  0  0  0  0  0  0  0  0  0  0
    6.6696   -0.0641    0.0000 H   0  0  0  0  0  0  0  0  0  0  0  0
    3.0424   -0.7527    0.0000 H   0  0  0  0  0  0  0  0  0  0  0  0
   12.8219   -1.5182    0.0000 H   0  0  0  0  0  0  0  0  0  0  0  0
   14.2205   -0.5020    0.0000 H   0  0  0  0  0  0  0  0  0  0  0  0
    1.4631   -1.4559    0.0000 H   0  0  0  0  0  0  0  0  0  0  0  0
    1.6438   -3.1753    0.0000 H   0  0  0  0  0  0  0  0  0  0  0  0
   13.6863    1.1422    0.0000 H   0  0  0  0  0  0  0  0  0  0  0  0
    9.9973    2.3607    0.0000 H   0  0  0  0  0  0  0  0  0  0  0  0
    9.5988    3.0510    0.0000 H   0  0  0  0  0  0  0  0  0  0  0  0
    3.8708    0.9498    0.0000 H   0  0  0  0  0  0  0  0  0  0  0  0
    3.2260    1.4184    0.0000 H   0  0  0  0  0  0  0  0  0  0  0  0
    2.3395    1.5210    0.0000 H   0  0  0  0  0  0  0  0  0  0  0  0
    1.6581    0.9692    0.0000 H   0  0  0  0  0  0  0  0  0  0  0  0
    8.8307    3.5053    0.0000 H   0  0  0  0  0  0  0  0  0  0  0  0
    7.9838    3.2783    0.0000 H   0  0  0  0  0  0  0  0  0  0  0  0
    8.2107    2.4314    0.0000 H   0  0  0  0  0  0  0  0  0  0  0  0
    2.2099    0.2878    0.0000 H   0  0  0  0  0  0  0  0  0  0  0  0
  1 17  1  0  0  0  0 
  1 20  1  0  0  0  0 
  2 16  1  0  0  0  0 
  2 21  1  0  0  0  0 
  3 19  1  0  0  0  0 
  3 29  1  0  0  0  0 
  4 18  1  0  0  0  0 
  4 30  1  0  0  0  0 
  5 23  1  0  0  0  0 
  5 32  1  0  0  0  0 
  6 24  1  0  0  0  0 
  6 31  1  0  0  0  0 
  7 22  2  0  0  0  0 
  8 23  2  0  0  0  0 
  9 24  2  0  0  0  0 
 10 17  1  0  0  0  0 
 10 22  1  0  0  0  0 
 10 37  1  0  0  0  0 
 11 16  1  0  0  0  0 
 11 22  1  0  0  0  0 
 11 38  1  0  0  0  0 
 12 14  1  0  0  0  0 
 12 17  2  0  0  0  0 
 12 23  1  0  0  0  0 
 13 15  1  0  0  0  0 
 13 16  2  0  0  0  0 
 13 24  1  0  0  0  0 
 14 19  1  0  0  0  0 
 14 20  2  0  0  0  0 
 15 18  1  0  0  0  0 
 15 21  2  0  0  0  0 
 18 26  2  0  0  0  0 
 19 25  2  0  0  0  0 
 20 36  1  0  0  0  0 
 21 35  1  0  0  0  0 
 25 27  1  0  0  0  0 
 25 40  1  0  0  0  0 
 26 28  1  0  0  0  0 
 26 39  1  0  0  0  0 
 27 29  2  0  0  0  0 
 27 41  1  0  0  0  0 
 28 30  2  0  0  0  0 
 28 42  1  0  0  0  0 
 29 44  1  0  0  0  0 
 30 43  1  0  0  0  0 
 31 33  1  0  0  0  0 
 31 47  1  0  0  0  0 
 31 48  1  0  0  0  0 
 32 34  1  0  0  0  0 
 32 45  1  0  0  0  0 
 32 46  1  0  0  0  0 
 33 49  1  0  0  0  0 
 33 50  1  0  0  0  0 
 33 54  1  0  0  0  0 
 34 51  1  0  0  0  0 
 34 52  1  0  0  0  0 
 34 53  1  0  0  0  0 
M  END
> <cdk:Title>
20106795

> <cdk:Remark>
null

> <PUBCHEM_COMPOUND_CID>
20106795

> <PUBCHEM_COMPOUND_CANONICALIZED>
1

> <PUBCHEM_CACTVS_COMPLEXITY>
686

> <PUBCHEM_CACTVS_HBOND_ACCEPTOR>
9

> <PUBCHEM_CACTVS_HBOND_DONOR>
2

> <PUBCHEM_CACTVS_ROTATABLE_BOND>
10

> <PUBCHEM_CACTVS_SUBSKEYS>
AAADceB7OABwAAAAAAAAAAAAAAAAASJEiQAAAAAAAAAAAAAB/gAAHgQQAAAADACl2AKziYLABAiMAiDSWACDAIBlCBlIiBkATMiIJjrgtZmGMYhuxANo6WeYyGCOgAAAAAAAAAAAAAAAAAAAAAAAAAAAAA==

> <PUBCHEM_IUPAC_OPENEYE_NAME>
ethyl 2-[[3-ethoxycarbonyl-4-(2-thienyl)-2-thienyl]carbamoylamino]-4-(2-thienyl)thiophene-3-carboxylate

> <PUBCHEM_IUPAC_CAS_NAME>
2-[[[(3-ethoxycarbonyl-4-thiophen-2-yl-2-thiophenyl)amino]-oxomethyl]amino]-4-thiophen-2-yl-3-thiophenecarboxylic acid ethyl ester

> <PUBCHEM_IUPAC_NAME>
ethyl 2-[(3-ethoxycarbonyl-4-thiophen-2-ylthiophen-2-yl)carbamoylamino]-4-thiophen-2-ylthiophene-3-carboxylate

> <PUBCHEM_IUPAC_SYSTEMATIC_NAME>
ethyl 2-[(3-ethoxycarbonyl-4-thiophen-2-yl-thiophen-2-yl)carbamoylamino]-4-thiophen-2-yl-thiophene-3-carboxylate

> <PUBCHEM_IUPAC_TRADITIONAL_NAME>
2-[[3-carbethoxy-4-(2-thienyl)-2-thienyl]carbamoylamino]-4-(2-thienyl)thiophene-3-carboxylic acid ethyl ester

> <PUBCHEM_IUPAC_INCHI>
InChI=1S/C23H20N2O5S4/c1-3-29-21(26)17-13(15-7-5-9-31-15)11-33-19(17)24-23(28)25-20-18(22(27)30-4-2)14(12-34-20)16-8-6-10-32-16/h5-12H,3-4H2,1-2H3,(H2,24,25,28)

> <PUBCHEM_IUPAC_INCHIKEY>
YMGCRLXYIUHVKH-UHFFFAOYSA-N

> <PUBCHEM_XLOGP3_AA>
6.7

> <PUBCHEM_EXACT_MASS>
532.025506

> <PUBCHEM_MOLECULAR_FORMULA>
C23H20N2O5S4

> <PUBCHEM_MOLECULAR_WEIGHT>
532.6753

> <PUBCHEM_OPENEYE_CAN_SMILES>
CCOC(=O)C1=C(SC=C1C2=CC=CS2)NC(=O)NC3=C(C(=CS3)C4=CC=CS4)C(=O)OCC

> <PUBCHEM_OPENEYE_ISO_SMILES>
CCOC(=O)C1=C(SC=C1C2=CC=CS2)NC(=O)NC3=C(C(=CS3)C4=CC=CS4)C(=O)OCC

> <PUBCHEM_CACTVS_TPSA>
207

> <PUBCHEM_MONOISOTOPIC_WEIGHT>
532.025506

> <PUBCHEM_TOTAL_CHARGE>
0

> <PUBCHEM_HEAVY_ATOM_COUNT>
34

> <PUBCHEM_ATOM_DEF_STEREO_COUNT>
0

> <PUBCHEM_ATOM_UDEF_STEREO_COUNT>
0

> <PUBCHEM_BOND_DEF_STEREO_COUNT>
0

> <PUBCHEM_BOND_UDEF_STEREO_COUNT>
0

> <PUBCHEM_ISOTOPIC_ATOM_COUNT>
0

> <PUBCHEM_COMPONENT_COUNT>
1

> <PUBCHEM_CACTVS_TAUTO_COUNT>
9

> <PUBCHEM_COORDINATE_TYPE>
1

> <PUBCHEM_BONDANNOTATIONS>
1  17  8

$$$$
56220661
  CDK     1229141458

 43 46  0  0  0  0  0  0  0  0999 V2000
    9.1984    2.2250    0.0000 S   0  0  0  0  0  0  0  0  0  0  0  0
    5.1613    2.2521    0.0000 O   0  0  0  0  0  0  0  0  0  0  0  0
    2.3660    1.8649    0.0000 O   0  0  0  0  0  0  0  0  0  0  0  0
    3.9538    2.6739    0.0000 O   0  0  0  0  0  0  0  0  0  0  0  0
    7.9383    0.9650    0.0000 N   0  0  0  0  0  0  0  0  0  0  0  0
    3.6750    0.9139    0.0000 N   0  0  0  0  0  0  0  0  0  0  0  0
    9.6984    0.6862    0.0000 N   0  0  0  0  0  0  0  0  0  0  0  0
    2.0570    0.9139    0.0000 N   0  0  0  0  0  0  0  0  0  0  0  0
    6.3203    0.9650    0.0000 C   0  0  0  0  0  0  0  0  0  0  0  0
    7.1293    1.5527    0.0000 C   0  0  0  0  0  0  0  0  0  0  0  0
    7.6293    0.0139    0.0000 C   0  0  0  0  0  0  0  0  0  0  0  0
    6.6293    0.0139    0.0000 C   0  0  0  0  0  0  0  0  0  0  0  0
    5.3692    1.2740    0.0000 C   0  0  0  0  0  0  0  0  0  0  0  0
    4.6261    0.6048    0.0000 C   0  0  0  0  0  0  0  0  0  0  0  0
    7.1293    2.5527    0.0000 C   0  0  0  0  0  0  0  0  0  0  0  0
    8.8894    1.2740    0.0000 C   0  0  0  0  0  0  0  0  0  0  0  0
    8.2171   -0.7951    0.0000 C   0  0  0  0  0  0  0  0  0  0  0  0
    2.8660    0.3261    0.0000 C   0  0  0  0  0  0  0  0  0  0  0  0
    2.8660   -0.6739    0.0000 C   0  0  0  0  0  0  0  0  0  0  0  0
    3.3660    1.8649    0.0000 C   0  0  0  0  0  0  0  0  0  0  0  0
    3.7320   -1.1739    0.0000 C   0  0  0  0  0  0  0  0  0  0  0  0
    2.0000   -1.1739    0.0000 C   0  0  0  0  0  0  0  0  0  0  0  0
   10.1984    2.2250    0.0000 C   0  0  0  0  0  0  0  0  0  0  0  0
   10.5074    1.2740    0.0000 C   0  0  0  0  0  0  0  0  0  0  0  0
    3.7320   -2.1739    0.0000 C   0  0  0  0  0  0  0  0  0  0  0  0
    2.0000   -2.1739    0.0000 C   0  0  0  0  0  0  0  0  0  0  0  0
    2.8660   -2.6739    0.0000 C   0  0  0  0  0  0  0  0  0  0  0  0
    6.2649   -0.4877    0.0000 H   0  0  0  0  0  0  0  0  0  0  0  0
    4.3350    0.0574    0.0000 H   0  0  0  0  0  0  0  0  0  0  0  0
    5.1147    0.2231    0.0000 H   0  0  0  0  0  0  0  0  0  0  0  0
    7.7493    2.5527    0.0000 H   0  0  0  0  0  0  0  0  0  0  0  0
    7.1293    3.1727    0.0000 H   0  0  0  0  0  0  0  0  0  0  0  0
    6.5093    2.5527    0.0000 H   0  0  0  0  0  0  0  0  0  0  0  0
    7.7155   -1.1596    0.0000 H   0  0  0  0  0  0  0  0  0  0  0  0
    8.5815   -1.2967    0.0000 H   0  0  0  0  0  0  0  0  0  0  0  0
    8.7187   -0.4307    0.0000 H   0  0  0  0  0  0  0  0  0  0  0  0
    4.2690   -0.8639    0.0000 H   0  0  0  0  0  0  0  0  0  0  0  0
    1.4631   -0.8639    0.0000 H   0  0  0  0  0  0  0  0  0  0  0  0
   10.5628    2.7266    0.0000 H   0  0  0  0  0  0  0  0  0  0  0  0
   11.0971    1.0824    0.0000 H   0  0  0  0  0  0  0  0  0  0  0  0
    4.2690   -2.4839    0.0000 H   0  0  0  0  0  0  0  0  0  0  0  0
    1.4631   -2.4839    0.0000 H   0  0  0  0  0  0  0  0  0  0  0  0
    2.8660   -3.2939    0.0000 H   0  0  0  0  0  0  0  0  0  0  0  0
  1 16  1  0  0  0  0 
  1 23  1  0  0  0  0 
  2 13  2  0  0  0  0 
  3  8  1  0  0  0  0 
  3 20  1  0  0  0  0 
  4 20  2  0  0  0  0 
  5 10  1  0  0  0  0 
  5 11  1  0  0  0  0 
  5 16  1  0  0  0  0 
  6 14  1  0  0  0  0 
  6 18  1  0  0  0  0 
  6 20  1  0  0  0  0 
  7 16  2  0  0  0  0 
  7 24  1  0  0  0  0 
  8 18  2  0  0  0  0 
  9 10  2  0  0  0  0 
  9 12  1  0  0  0  0 
  9 13  1  0  0  0  0 
 10 15  1  0  0  0  0 
 11 12  2  0  0  0  0 
 11 17  1  0  0  0  0 
 12 28  1  0  0  0  0 
 13 14  1  0  0  0  0 
 14 29  1  0  0  0  0 
 14 30  1  0  0  0  0 
 15 31  1  0  0  0  0 
 15 32  1  0  0  0  0 
 15 33  1  0  0  0  0 
 17 34  1  0  0  0  0 
 17 35  1  0  0  0  0 
 17 36  1  0  0  0  0 
 18 19  1  0  0  0  0 
 19 21  2  0  0  0  0 
 19 22  1  0  0  0  0 
 21 25  1  0  0  0  0 
 21 37  1  0  0  0  0 
 22 26  2  0  0  0  0 
 22 38  1  0  0  0  0 
 23 24  2  0  0  0  0 
 23 39  1  0  0  0  0 
 24 40  1  0  0  0  0 
 25 27  2  0  0  0  0 
 25 41  1  0  0  0  0 
 26 27  1  0  0  0  0 
 26 42  1  0  0  0  0 
 27 43  1  0  0  0  0 
M  END
> <cdk:Title>
56220661

> <cdk:Remark>
null

> <PUBCHEM_COMPOUND_CID>
56220661

> <PUBCHEM_COMPOUND_CANONICALIZED>
1

> <PUBCHEM_CACTVS_COMPLEXITY>
622

> <PUBCHEM_CACTVS_HBOND_ACCEPTOR>
6

> <PUBCHEM_CACTVS_HBOND_DONOR>
0

> <PUBCHEM_CACTVS_ROTATABLE_BOND>
5

> <PUBCHEM_CACTVS_SUBSKEYS>
AAADceB7sABAAAAAAAAAAAAAAAAAAWLEAAAwAAAAAAAAAAAB8AAAHgQEAAAADAzF3gS/mZMcEAisA7Z3fACC8Kl1CjhJ2C24ZNiIIPrAnbGEIYhohgLIyeccgAAOAAAAAAAAAAAAAAAAAAAAAAAAAAAAAA==

> <PUBCHEM_IUPAC_OPENEYE_NAME>
4-[2-(2,5-dimethyl-1-thiazol-2-yl-pyrrol-3-yl)-2-oxo-ethyl]-3-phenyl-1,2,4-oxadiazol-5-one

> <PUBCHEM_IUPAC_CAS_NAME>
4-[2-[2,5-dimethyl-1-(2-thiazolyl)-3-pyrrolyl]-2-oxoethyl]-3-phenyl-1,2,4-oxadiazol-5-one

> <PUBCHEM_IUPAC_NAME>
4-[2-[2,5-dimethyl-1-(1,3-thiazol-2-yl)pyrrol-3-yl]-2-oxoethyl]-3-phenyl-1,2,4-oxadiazol-5-one

> <PUBCHEM_IUPAC_SYSTEMATIC_NAME>
4-[2-[2,5-dimethyl-1-(1,3-thiazol-2-yl)pyrrol-3-yl]-2-oxidanylidene-ethyl]-3-phenyl-1,2,4-oxadiazol-5-one

> <PUBCHEM_IUPAC_TRADITIONAL_NAME>
4-[2-(2,5-dimethyl-1-thiazol-2-yl-pyrrol-3-yl)-2-keto-ethyl]-3-phenyl-1,2,4-oxadiazol-5-one

> <PUBCHEM_IUPAC_INCHI>
InChI=1S/C19H16N4O3S/c1-12-10-15(13(2)23(12)18-20-8-9-27-18)16(24)11-22-17(21-26-19(22)25)14-6-4-3-5-7-14/h3-10H,11H2,1-2H3

> <PUBCHEM_IUPAC_INCHIKEY>
FJKCGWGWWJTLEX-UHFFFAOYSA-N

> <PUBCHEM_XLOGP3_AA>
3.6

> <PUBCHEM_EXACT_MASS>
380.094311

> <PUBCHEM_MOLECULAR_FORMULA>
C19H16N4O3S

> <PUBCHEM_MOLECULAR_WEIGHT>
380.42034

> <PUBCHEM_OPENEYE_CAN_SMILES>
CC1=CC(=C(N1C2=NC=CS2)C)C(=O)CN3C(=NOC3=O)C4=CC=CC=C4

> <PUBCHEM_OPENEYE_ISO_SMILES>
CC1=CC(=C(N1C2=NC=CS2)C)C(=O)CN3C(=NOC3=O)C4=CC=CC=C4

> <PUBCHEM_CACTVS_TPSA>
105

> <PUBCHEM_MONOISOTOPIC_WEIGHT>
380.094311

> <PUBCHEM_TOTAL_CHARGE>
0

> <PUBCHEM_HEAVY_ATOM_COUNT>
27

> <PUBCHEM_ATOM_DEF_STEREO_COUNT>
0

> <PUBCHEM_ATOM_UDEF_STEREO_COUNT>
0

> <PUBCHEM_BOND_DEF_STEREO_COUNT>
0

> <PUBCHEM_BOND_UDEF_STEREO_COUNT>
0

> <PUBCHEM_ISOTOPIC_ATOM_COUNT>
0

> <PUBCHEM_COMPONENT_COUNT>
1

> <PUBCHEM_CACTVS_TAUTO_COUNT>
2

> <PUBCHEM_COORDINATE_TYPE>
1

> <PUBCHEM_BONDANNOTATIONS>
1  16  8

$$$$
