
  CDK     1223141415

 45 50  0  0  0  0  0  0  0  0999 V2000
   14.3946    1.3163    0.0000 N   0  0  0  0  0  0  0  0  0  0  0  0
   11.2142    3.0146    0.0000 N   0  0  0  0  0  0  0  0  0  0  0  0
   16.0697   -0.7715    0.0000 N   0  0  0  0  0  0  0  0  0  0  0  0
    8.7768    4.0439    0.0000 N   0  0  0  0  0  0  0  0  0  0  0  0
   14.3376   -3.7715    0.0000 N   0  0  0  0  0  0  0  0  0  0  0  0
    4.4374    4.4551    0.0000 N   0  0  0  0  0  0  0  0  0  0  0  0
   12.7004    1.6764    0.0000 C   0  0  0  0  0  0  0  0  0  0  0  0
   11.7494    1.3674    0.0000 C   0  0  0  0  0  0  0  0  0  0  0  0
   12.9084    2.6545    0.0000 C   0  0  0  0  0  0  0  0  0  0  0  0
   15.2037    0.7285    0.0000 C   0  0  3  0  0  0  0  0  0  0  0  0
   11.0062    2.0365    0.0000 C   0  0  0  0  0  0  0  0  0  0  0  0
   12.1652    3.3237    0.0000 C   0  0  0  0  0  0  0  0  0  0  0  0
   13.4436    1.0073    0.0000 C   0  0  0  0  0  0  0  0  0  0  0  0
   14.7037    2.2673    0.0000 C   0  0  0  0  0  0  0  0  0  0  0  0
   16.0127    1.3163    0.0000 C   0  0  0  0  0  0  0  0  0  0  0  0
   15.7037    2.2673    0.0000 C   0  0  0  0  0  0  0  0  0  0  0  0
   10.4710    3.6838    0.0000 C   0  0  3  0  0  0  0  0  0  0  0  0
   15.2037   -0.2715    0.0000 C   0  0  0  0  0  0  0  0  0  0  0  0
   13.4716   -5.2715    0.0000 C   0  0  0  0  0  0  0  0  0  0  0  0
    9.5200    3.3748    0.0000 C   0  0  0  0  0  0  0  0  0  0  0  0
   12.6056   -4.7715    0.0000 C   0  0  0  0  0  0  0  0  0  0  0  0
   13.4716   -6.2715    0.0000 C   0  0  0  0  0  0  0  0  0  0  0  0
   11.7396   -5.2715    0.0000 C   0  0  0  0  0  0  0  0  0  0  0  0
   12.6056   -6.7715    0.0000 C   0  0  0  0  0  0  0  0  0  0  0  0
   11.7396   -6.2715    0.0000 C   0  0  0  0  0  0  0  0  0  0  0  0
   14.3376   -4.7715    0.0000 C   0  0  0  0  0  0  0  0  0  0  0  0
   16.0697   -1.7715    0.0000 C   0  0  0  0  0  0  0  0  0  0  0  0
   15.2037   -2.2715    0.0000 C   0  0  0  0  0  0  0  0  0  0  0  0
   15.2037   -3.2715    0.0000 C   0  0  0  0  0  0  0  0  0  0  0  0
    7.8258    3.7349    0.0000 C   0  0  0  0  0  0  0  0  0  0  0  0
   16.9357   -2.2715    0.0000 C   0  0  0  0  0  0  0  0  0  0  0  0
   16.0697   -3.7715    0.0000 C   0  0  0  0  0  0  0  0  0  0  0  0
   16.9357   -3.2715    0.0000 C   0  0  0  0  0  0  0  0  0  0  0  0
    7.6178    2.7567    0.0000 C   0  0  0  0  0  0  0  0  0  0  0  0
    7.0826    4.4040    0.0000 C   0  0  0  0  0  0  0  0  0  0  0  0
    6.1316    4.0950    0.0000 C   0  0  0  0  0  0  0  0  0  0  0  0
    6.6668    2.4477    0.0000 C   0  0  0  0  0  0  0  0  0  0  0  0
    5.9236    3.1168    0.0000 C   0  0  0  0  0  0  0  0  0  0  0  0
    5.3884    4.7641    0.0000 C   0  0  0  0  0  0  0  0  0  0  0  0
    3.6942    5.1242    0.0000 C   0  0  0  0  0  0  0  0  0  0  0  0
    3.9021    6.1024    0.0000 C   0  0  0  0  0  0  0  0  0  0  0  0
    2.7431    4.8152    0.0000 C   0  0  0  0  0  0  0  0  0  0  0  0
    3.1590    6.7715    0.0000 C   0  0  0  0  0  0  0  0  0  0  0  0
    2.0000    5.4844    0.0000 C   0  0  0  0  0  0  0  0  0  0  0  0
    2.2079    6.4625    0.0000 C   0  0  0  0  0  0  0  0  0  0  0  0
  1 10  1  0  0  0  0 
  1 13  1  0  0  0  0 
  1 14  1  0  0  0  0 
  2 11  1  0  0  0  0 
  2 12  1  0  0  0  0 
  2 17  1  0  0  0  0 
  3 18  1  0  0  0  0 
  3 27  1  0  0  0  0 
  4 20  1  0  0  0  0 
  4 30  1  0  0  0  0 
  5 26  1  0  0  0  0 
  5 29  1  0  0  0  0 
  6 39  1  0  0  0  0 
  6 40  1  0  0  0  0 
  7  8  1  0  0  0  0 
  7  9  1  0  0  0  0 
  7 13  1  0  0  0  0 
  8 11  1  0  0  0  0 
  9 12  1  0  0  0  0 
 10 15  1  0  0  0  0 
 10 18  1  0  0  0  0 
 14 16  1  0  0  0  0 
 15 16  1  0  0  0  0 
 17 20  1  0  0  0  0 
 19 21  1  0  0  0  0 
 19 22  1  0  0  0  0 
 19 26  1  0  0  0  0 
 21 23  1  0  0  0  0 
 22 24  1  0  0  0  0 
 23 25  1  0  0  0  0 
 24 25  1  0  0  0  0 
 27 28  1  0  0  0  0 
 27 31  1  0  0  0  0 
 28 29  1  0  0  0  0 
 29 32  1  0  0  0  0 
 30 34  1  0  0  0  0 
 30 35  1  0  0  0  0 
 31 33  1  0  0  0  0 
 32 33  1  0  0  0  0 
 34 37  1  0  0  0  0 
 35 36  1  0  0  0  0 
 36 38  1  0  0  0  0 
 36 39  1  0  0  0  0 
 37 38  1  0  0  0  0 
 40 41  1  0  0  0  0 
 40 42  1  0  0  0  0 
 41 43  1  0  0  0  0 
 42 44  1  0  0  0  0 
 43 45  1  0  0  0  0 
 44 45  1  0  0  0  0 
M  END
> <PUBCHEM_COMPOUND_CID>
50108870

$$$$
