
  CDK     0202151410

 15 16  0  0  0  0  0  0  0  0999 V2000
    4.6783   -0.8163    0.0000 Se  0  0  0  0  0  0  0  0  0  0  0  0
    4.9889    1.7436    0.0000 O   0  0  0  0  0  0  0  0  0  0  0  0
    5.2619   -0.0116    0.0000 N   0  0  0  0  0  0  0  0  0  0  0  0
    9.2619   -0.0116    0.0000 C   0  0  3  0  0  0  0  0  0  0  0  0
    9.7619    0.8544    0.0000 C   0  0  0  0  0  0  0  0  0  0  0  0
    8.2619   -0.0116    0.0000 C   0  0  0  0  0  0  0  0  0  0  0  0
    6.2619   -0.0116    0.0000 C   0  0  0  0  0  0  0  0  0  0  0  0
    7.7619    0.8544    0.0000 C   0  0  0  0  0  0  0  0  0  0  0  0
    7.7619   -0.8776    0.0000 C   0  0  0  0  0  0  0  0  0  0  0  0
    9.7619   -0.8776    0.0000 C   0  0  0  0  0  0  0  0  0  0  0  0
    6.7619    0.8544    0.0000 C   0  0  0  0  0  0  0  0  0  0  0  0
    6.7619   -0.8776    0.0000 C   0  0  0  0  0  0  0  0  0  0  0  0
    3.7320    0.4884    0.0000 C   0  0  0  0  0  0  0  0  0  0  0  0
    4.6783    0.7931    0.0000 C   0  0  0  0  0  0  0  0  0  0  0  0
    3.7320   -0.5116    0.0000 C   0  0  0  0  0  0  0  0  0  0  0  0
  1  3  1  0  0  0  0 
  1 15  1  0  0  0  0 
  2 14  1  0  0  0  0 
  3  7  1  0  0  0  0 
  3 14  1  0  0  0  0 
  4  5  1  0  0  0  0 
  4  6  1  0  0  0  0 
  4 10  1  0  0  0  0 
  6  8  1  0  0  0  0 
  6  9  1  0  0  0  0 
  7 11  1  0  0  0  0 
  7 12  1  0  0  0  0 
  8 11  1  0  0  0  0 
  9 12  1  0  0  0  0 
 13 14  1  0  0  0  0 
 13 15  1  0  0  0  0 
M  END
> <PUBCHEM_COMPOUND_CID>
53428689

$$$$
