
  CDK     0202151410

 18 18  0  0  0  0  0  0  0  0999 V2000
    9.1671    2.2561    0.0000 O   0  0  0  0  0  0  0  0  0  0  0  0
    6.2781   -1.0079    0.0000 N   0  0  0  0  0  0  0  0  0  0  0  0
    5.9674   -1.9584    0.0000 C   0  0  0  0  0  0  0  0  0  0  0  0
    4.9889   -2.1646    0.0000 C   0  0  0  0  0  0  0  0  0  0  0  0
    4.6783   -3.1151    0.0000 C   0  0  0  0  0  0  0  0  0  0  0  0
    6.5888   -0.0573    0.0000 C   0  0  0  0  0  0  0  0  0  0  0  0
    3.7320   -3.4199    0.0000 C   0  0  0  0  0  0  0  0  0  0  0  0
    3.7320   -4.4199    0.0000 C   0  0  0  0  0  0  0  0  0  0  0  0
    5.2619   -3.9199    0.0000 C   0  0  0  0  0  0  0  0  0  0  0  0
    7.5673    0.1489    0.0000 C   0  0  0  0  0  0  0  0  0  0  0  0
    7.8779    1.0994    0.0000 C   0  0  0  0  0  0  0  0  0  0  0  0
    8.2351   -0.5954    0.0000 C   0  0  0  0  0  0  0  0  0  0  0  0
    8.8564    1.3056    0.0000 C   0  0  0  0  0  0  0  0  0  0  0  0
    9.2136   -0.3892    0.0000 C   0  0  0  0  0  0  0  0  0  0  0  0
    9.5243    0.5613    0.0000 C   0  0  0  0  0  0  0  0  0  0  0  0
   10.1456    2.4623    0.0000 C   0  0  0  0  0  0  0  0  0  0  0  0
   10.4563    3.4129    0.0000 C   0  0  0  0  0  0  0  0  0  0  0  0
   11.4348    3.6191    0.0000 C   0  0  0  0  0  0  0  0  0  0  0  0
  1 13  1  0  0  0  0 
  1 16  1  0  0  0  0 
  2  3  1  0  0  0  0 
  2  6  1  0  0  0  0 
  3  4  1  0  0  0  0 
  4  5  1  0  0  0  0 
  5  7  1  0  0  0  0 
  5  9  1  0  0  0  0 
  6 10  1  0  0  0  0 
  7  8  1  0  0  0  0 
 10 11  1  0  0  0  0 
 10 12  1  0  0  0  0 
 11 13  1  0  0  0  0 
 12 14  1  0  0  0  0 
 13 15  1  0  0  0  0 
 14 15  1  0  0  0  0 
 16 17  1  0  0  0  0 
 17 18  1  0  0  0  0 
M  CHG  1   2   1
M  END
> <PUBCHEM_COMPOUND_CID>
27137867

$$$$
