
  CDK     1217142145

  4  4  0  0  0  0  0  0  0  0999 V2000
    2.0000   -1.3660    0.0000 N   0  0  0  0  0  0  0  0  0  0  0  0
    3.0000   -0.3660    0.0000 C   0  0  0  0  0  0  0  0  0  0  0  0
    2.0000   -0.3660    0.0000 C   0  0  0  0  0  0  0  0  0  0  0  0
    3.0000   -1.3660    0.0000 C   0  0  0  0  0  0  0  0  0  0  0  0
  1  3  1  0  0  0  0 
  1  4  1  0  0  0  0 
  2  3  1  0  0  0  0 
  2  4  1  0  0  0  0 
M  ISO  1   1  16
M  END
> <cdk:Title>
null

> <cdk:Remark>
null

> <PUBCHEM_COMPOUND_CID>
11217487

> <AMMOLITE_STRUCTURE_ID>
11217487_STRUCT

$$$$
