
  CDK     1217142145

 30 33  0  0  0  0  0  0  0  0999 V2000
   11.5263    6.2500    0.0000 N   0  0  0  0  0  0  0  0  0  0  0  0
   11.5263    4.2500    0.0000 N   0  0  0  0  0  0  0  0  0  0  0  0
    9.7942    1.2500    0.0000 N   0  0  0  0  0  0  0  0  0  0  0  0
    8.0622   -1.7500    0.0000 N   0  0  0  0  0  0  0  0  0  0  0  0
    5.4641   -4.2500    0.0000 N   0  0  0  0  0  0  0  0  0  0  0  0
   10.6603    4.7500    0.0000 C   0  0  0  0  0  0  0  0  0  0  0  0
   12.3923    4.7500    0.0000 C   0  0  0  0  0  0  0  0  0  0  0  0
   11.5263    3.2500    0.0000 C   0  0  0  0  0  0  0  0  0  0  0  0
   10.6603    5.7500    0.0000 C   0  0  0  0  0  0  0  0  0  0  0  0
   12.3923    5.7500    0.0000 C   0  0  0  0  0  0  0  0  0  0  0  0
   10.6603    2.7500    0.0000 C   0  0  0  0  0  0  0  0  0  0  0  0
   10.6603    1.7500    0.0000 C   0  0  0  0  0  0  0  0  0  0  0  0
    9.7942    0.2500    0.0000 C   0  0  0  0  0  0  0  0  0  0  0  0
    8.9282   -0.2500    0.0000 C   0  0  0  0  0  0  0  0  0  0  0  0
    7.1962   -1.2500    0.0000 C   0  0  0  0  0  0  0  0  0  0  0  0
    8.9282   -1.2500    0.0000 C   0  0  0  0  0  0  0  0  0  0  0  0
    6.3301   -1.7500    0.0000 C   0  0  0  0  0  0  0  0  0  0  0  0
    8.0622    0.2500    0.0000 C   0  0  0  0  0  0  0  0  0  0  0  0
    7.1962   -0.2500    0.0000 C   0  0  0  0  0  0  0  0  0  0  0  0
    5.4641   -3.2500    0.0000 C   0  0  0  0  0  0  0  0  0  0  0  0
    6.3301   -2.7500    0.0000 C   0  0  0  0  0  0  0  0  0  0  0  0
    5.4641   -1.2500    0.0000 C   0  0  0  0  0  0  0  0  0  0  0  0
    4.5981   -4.7500    0.0000 C   0  0  0  0  0  0  0  0  0  0  0  0
    4.5981   -2.7500    0.0000 C   0  0  0  0  0  0  0  0  0  0  0  0
    4.5981   -1.7500    0.0000 C   0  0  0  0  0  0  0  0  0  0  0  0
    3.7320   -4.2500    0.0000 C   0  0  0  0  0  0  0  0  0  0  0  0
    4.5981   -5.7500    0.0000 C   0  0  0  0  0  0  0  0  0  0  0  0
    2.8660   -5.7500    0.0000 C   0  0  0  0  0  0  0  0  0  0  0  0
    2.8660   -4.7500    0.0000 C   0  0  0  0  0  0  0  0  0  0  0  0
    3.7320   -6.2500    0.0000 C   0  0  0  0  0  0  0  0  0  0  0  0
  1  9  1  0  0  0  0 
  1 10  1  0  0  0  0 
  2  6  1  0  0  0  0 
  2  7  1  0  0  0  0 
  2  8  1  0  0  0  0 
  3 12  1  0  0  0  0 
  3 13  1  0  0  0  0 
  4 15  1  0  0  0  0 
  4 16  1  0  0  0  0 
  5 20  1  0  0  0  0 
  5 23  1  0  0  0  0 
  6  9  1  0  0  0  0 
  7 10  1  0  0  0  0 
  8 11  1  0  0  0  0 
 11 12  1  0  0  0  0 
 13 14  1  0  0  0  0 
 14 16  1  0  0  0  0 
 14 18  1  0  0  0  0 
 15 17  1  0  0  0  0 
 15 19  1  0  0  0  0 
 17 21  1  0  0  0  0 
 17 22  1  0  0  0  0 
 18 19  1  0  0  0  0 
 20 21  1  0  0  0  0 
 20 24  1  0  0  0  0 
 22 25  1  0  0  0  0 
 23 26  1  0  0  0  0 
 23 27  1  0  0  0  0 
 24 25  1  0  0  0  0 
 26 29  1  0  0  0  0 
 27 30  1  0  0  0  0 
 28 29  1  0  0  0  0 
 28 30  1  0  0  0  0 
M  ISO  1   1  16
M  END
> <cdk:Title>
null

> <cdk:Remark>
null

> <PUBCHEM_COMPOUND_CID>
11569483

> <AMMOLITE_STRUCTURE_ID>
11569483_STRUCT

$$$$
