
  CDK     1217142145

 14 16  0  0  0  0  0  0  0  0999 V2000
    5.5301    0.8419    0.0000 N   0  0  0  0  0  0  0  0  0  0  0  0
    8.1962    0.3627    0.0000 N   0  0  0  0  0  0  0  0  0  0  0  0
    8.1962   -0.6789    0.0000 N   0  0  0  0  0  0  0  0  0  0  0  0
    4.6641    0.3419    0.0000 C   0  0  0  0  0  0  0  0  0  0  0  0
    4.6641   -0.6581    0.0000 C   0  0  0  0  0  0  0  0  0  0  0  0
    6.3961    0.3419    0.0000 C   0  0  0  0  0  0  0  0  0  0  0  0
    6.3961   -0.6581    0.0000 C   0  0  0  0  0  0  0  0  0  0  0  0
    5.5301   -1.1581    0.0000 C   0  0  0  0  0  0  0  0  0  0  0  0
    3.7702    0.8766    0.0000 C   0  0  0  0  0  0  0  0  0  0  0  0
    3.7702   -1.1928    0.0000 C   0  0  0  0  0  0  0  0  0  0  0  0
    7.2901    0.8766    0.0000 C   0  0  0  0  0  0  0  0  0  0  0  0
    2.8641    0.3627    0.0000 C   0  0  0  0  0  0  0  0  0  0  0  0
    7.2901   -1.1928    0.0000 C   0  0  0  0  0  0  0  0  0  0  0  0
    2.8641   -0.6789    0.0000 C   0  0  0  0  0  0  0  0  0  0  0  0
  1  4  1  0  0  0  0 
  1  6  1  0  0  0  0 
  2  3  1  0  0  0  0 
  2 11  1  0  0  0  0 
  3 13  1  0  0  0  0 
  4  5  1  0  0  0  0 
  4  9  1  0  0  0  0 
  5  8  1  0  0  0  0 
  5 10  1  0  0  0  0 
  6  7  1  0  0  0  0 
  6 11  1  0  0  0  0 
  7  8  1  0  0  0  0 
  7 13  1  0  0  0  0 
  9 12  1  0  0  0  0 
 10 14  1  0  0  0  0 
 12 14  1  0  0  0  0 
M  END
> <cdk:Title>
null

> <cdk:Remark>
null

> <PUBCHEM_COMPOUND_CID>
15356007

> <AMMOLITE_STRUCTURE_ID>
15356007_STRUCT

$$$$
