
  CDK     1217142145

 26 30  0  0  0  0  0  0  0  0999 V2000
    9.1857    0.6478    0.0000 N   0  0  0  0  0  0  0  0  0  0  0  0
    8.5179    1.3921    0.0000 N   0  0  0  0  0  0  0  0  0  0  0  0
   11.7640    2.9613    0.0000 N   0  0  0  0  0  0  0  0  0  0  0  0
    6.1968   -1.6074    0.0000 C   0  0  1  0  0  0  0  0  0  0  0  0
    7.0628   -2.1074    0.0000 C   0  0  2  0  0  0  0  0  0  0  0  0
    7.9288   -1.6074    0.0000 C   0  0  1  0  0  0  0  0  0  0  0  0
    7.9288   -0.6074    0.0000 C   0  0  2  0  0  0  0  0  0  0  0  0
    5.2868   -2.1143    0.0000 C   0  0  2  0  0  0  0  0  0  0  0  0
    6.1968   -0.6074    0.0000 C   0  0  0  0  0  0  0  0  0  0  0  0
    7.0628   -0.1074    0.0000 C   0  0  0  0  0  0  0  0  0  0  0  0
    8.8750   -1.9122    0.0000 C   0  0  0  0  0  0  0  0  0  0  0  0
    7.0789   -3.1489    0.0000 C   0  0  0  0  0  0  0  0  0  0  0  0
    5.2787   -3.1559    0.0000 C   0  0  0  0  0  0  0  0  0  0  0  0
    8.8750   -0.3027    0.0000 C   0  0  0  0  0  0  0  0  0  0  0  0
    4.3599   -1.5502    0.0000 C   0  0  0  0  0  0  0  0  0  0  0  0
    9.4586   -1.1074    0.0000 C   0  0  0  0  0  0  0  0  0  0  0  0
    6.1808   -3.6767    0.0000 C   0  0  0  0  0  0  0  0  0  0  0  0
    4.3433   -3.7056    0.0000 C   0  0  0  0  0  0  0  0  0  0  0  0
    3.4120   -2.0781    0.0000 C   0  0  0  0  0  0  0  0  0  0  0  0
    3.4037   -3.1631    0.0000 C   0  0  2  0  0  0  0  0  0  0  0  0
    8.8285    2.3426    0.0000 C   0  0  0  0  0  0  0  0  0  0  0  0
    9.8070    2.5489    0.0000 C   0  0  0  0  0  0  0  0  0  0  0  0
   10.1177    3.4994    0.0000 C   0  0  0  0  0  0  0  0  0  0  0  0
   10.4749    1.8046    0.0000 C   0  0  0  0  0  0  0  0  0  0  0  0
   11.0962    3.7056    0.0000 C   0  0  0  0  0  0  0  0  0  0  0  0
   11.4534    2.0108    0.0000 C   0  0  0  0  0  0  0  0  0  0  0  0
  1  2  1  0  0  0  0 
  1 14  1  0  0  0  0 
  2 21  1  0  0  0  0 
  3 25  1  0  0  0  0 
  3 26  1  0  0  0  0 
  4  5  1  0  0  0  0 
  4  8  1  0  0  0  0 
  4  9  1  0  0  0  0 
  5  6  1  0  0  0  0 
  5 12  1  0  0  0  0 
  6  7  1  0  0  0  0 
  6 11  1  0  0  0  0 
  7 10  1  0  0  0  0 
  7 14  1  0  0  0  0 
  8 13  1  0  0  0  0 
  8 15  1  0  0  0  0 
  9 10  1  0  0  0  0 
 11 16  1  0  0  0  0 
 12 17  1  0  0  0  0 
 13 17  1  0  0  0  0 
 13 18  1  0  0  0  0 
 14 16  1  0  0  0  0 
 15 19  1  0  0  0  0 
 18 20  1  0  0  0  0 
 19 20  1  0  0  0  0 
 21 22  1  0  0  0  0 
 22 23  1  0  0  0  0 
 22 24  1  0  0  0  0 
 23 25  1  0  0  0  0 
 24 26  1  0  0  0  0 
M  END
> <cdk:Title>
null

> <cdk:Remark>
null

> <PUBCHEM_COMPOUND_CID>
16403572

> <AMMOLITE_STRUCTURE_ID>
16403572_STRUCT

$$$$
