
  CDK     1217142145

 18 20  0  0  0  0  0  0  0  0999 V2000
    6.3776    0.1650    0.0000 N   0  0  0  0  0  0  0  0  0  0  0  0
    6.5468    1.7741    0.0000 N   0  0  0  0  0  0  0  0  0  0  0  0
    6.9535    2.6877    0.0000 C   0  0  0  0  0  0  0  0  0  0  0  0
    5.4641    0.5717    0.0000 C   0  0  0  0  0  0  0  0  0  0  0  0
    5.5686    1.5662    0.0000 C   0  0  0  0  0  0  0  0  0  0  0  0
    4.5981   -0.9283    0.0000 C   0  0  0  0  0  0  0  0  0  0  0  0
    4.5981    0.0717    0.0000 C   0  0  0  0  0  0  0  0  0  0  0  0
    7.9480    2.7922    0.0000 C   0  0  0  0  0  0  0  0  0  0  0  0
    6.3657    3.4967    0.0000 C   0  0  0  0  0  0  0  0  0  0  0  0
    7.0468    0.9081    0.0000 C   0  0  0  0  0  0  0  0  0  0  0  0
    7.7670    4.5148    0.0000 C   0  0  0  0  0  0  0  0  0  0  0  0
    3.7320   -1.4283    0.0000 C   0  0  0  0  0  0  0  0  0  0  0  0
    3.7320   -2.4283    0.0000 C   0  0  0  0  0  0  0  0  0  0  0  0
    8.3548    3.7058    0.0000 C   0  0  0  0  0  0  0  0  0  0  0  0
    6.7725    4.4102    0.0000 C   0  0  0  0  0  0  0  0  0  0  0  0
    5.4641   -1.4283    0.0000 C   0  0  0  0  0  0  0  0  0  0  0  0
    4.5981   -2.9283    0.0000 C   0  0  0  0  0  0  0  0  0  0  0  0
    5.4641   -2.4283    0.0000 C   0  0  0  0  0  0  0  0  0  0  0  0
  1  4  1  0  0  0  0 
  1 10  1  0  0  0  0 
  2  3  1  0  0  0  0 
  2  5  1  0  0  0  0 
  2 10  1  0  0  0  0 
  3  8  1  0  0  0  0 
  3  9  1  0  0  0  0 
  4  5  1  0  0  0  0 
  4  7  1  0  0  0  0 
  6  7  1  0  0  0  0 
  6 12  1  0  0  0  0 
  6 16  1  0  0  0  0 
  8 14  1  0  0  0  0 
  9 15  1  0  0  0  0 
 11 14  1  0  0  0  0 
 11 15  1  0  0  0  0 
 12 13  1  0  0  0  0 
 13 17  1  0  0  0  0 
 16 18  1  0  0  0  0 
 17 18  1  0  0  0  0 
M  ISO  1   1  32
M  END
> <cdk:Title>
null

> <cdk:Remark>
null

> <PUBCHEM_COMPOUND_CID>
17684074

> <AMMOLITE_STRUCTURE_ID>
17684074_STRUCT

$$$$
