
  CDK     1217142145

 30 33  0  0  0  0  0  0  0  0999 V2000
    7.2682   -2.9920    0.0000 N   0  0  0  0  0  0  0  0  0  0  0  0
    7.2682   -1.9920    0.0000 N   0  0  3  0  0  0  0  0  0  0  0  0
    4.1701    4.0469    0.0000 N   0  0  0  0  0  0  0  0  0  0  0  0
    5.5361    0.0080    0.0000 N   0  0  0  0  0  0  0  0  0  0  0  0
    5.5361    1.0080    0.0000 N   0  0  0  0  0  0  0  0  0  0  0  0
    8.1342   -1.4920    0.0000 C   0  0  0  0  0  0  0  0  0  0  0  0
    6.4021   -1.4920    0.0000 C   0  0  0  0  0  0  0  0  0  0  0  0
    3.8611    3.0958    0.0000 C   0  0  0  0  0  0  0  0  0  0  0  0
    7.2682   -3.9920    0.0000 C   0  0  0  0  0  0  0  0  0  0  0  0
    5.1701    4.0469    0.0000 C   0  0  0  0  0  0  0  0  0  0  0  0
    4.6701    2.5080    0.0000 C   0  0  0  0  0  0  0  0  0  0  0  0
    9.0002   -1.9920    0.0000 C   0  0  0  0  0  0  0  0  0  0  0  0
    8.1342   -0.4920    0.0000 C   0  0  0  0  0  0  0  0  0  0  0  0
    5.4791    3.0958    0.0000 C   0  0  0  0  0  0  0  0  0  0  0  0
    9.8663   -1.4920    0.0000 C   0  0  0  0  0  0  0  0  0  0  0  0
    9.0002    0.0080    0.0000 C   0  0  0  0  0  0  0  0  0  0  0  0
    3.5823    4.8559    0.0000 C   0  0  0  0  0  0  0  0  0  0  0  0
    9.8663   -0.4920    0.0000 C   0  0  0  0  0  0  0  0  0  0  0  0
    6.4021   -0.4920    0.0000 C   0  0  0  0  0  0  0  0  0  0  0  0
    6.4021   -4.4920    0.0000 C   0  0  0  0  0  0  0  0  0  0  0  0
    8.1342   -4.4920    0.0000 C   0  0  0  0  0  0  0  0  0  0  0  0
    4.6701    1.5080    0.0000 C   0  0  0  0  0  0  0  0  0  0  0  0
    6.4021   -5.4920    0.0000 C   0  0  0  0  0  0  0  0  0  0  0  0
    8.1342   -5.4920    0.0000 C   0  0  0  0  0  0  0  0  0  0  0  0
    3.9890    5.7694    0.0000 C   0  0  0  0  0  0  0  0  0  0  0  0
    2.5878    4.7514    0.0000 C   0  0  0  0  0  0  0  0  0  0  0  0
    7.2682   -5.9920    0.0000 C   0  0  0  0  0  0  0  0  0  0  0  0
    3.4013    6.5784    0.0000 C   0  0  0  0  0  0  0  0  0  0  0  0
    2.0000    5.5604    0.0000 C   0  0  0  0  0  0  0  0  0  0  0  0
    2.4067    6.4739    0.0000 C   0  0  0  0  0  0  0  0  0  0  0  0
  1  2  1  0  0  0  0 
  1  9  1  0  0  0  0 
  2  6  1  0  0  0  0 
  2  7  1  0  0  0  0 
  3  8  1  0  0  0  0 
  3 10  1  0  0  0  0 
  3 17  1  0  0  0  0 
  4  5  1  0  0  0  0 
  4 19  1  0  0  0  0 
  5 22  1  0  0  0  0 
  6 12  1  0  0  0  0 
  6 13  1  0  0  0  0 
  7 19  1  0  0  0  0 
  8 11  1  0  0  0  0 
  9 20  1  0  0  0  0 
  9 21  1  0  0  0  0 
 10 14  1  0  0  0  0 
 11 14  1  0  0  0  0 
 11 22  1  0  0  0  0 
 12 15  1  0  0  0  0 
 13 16  1  0  0  0  0 
 15 18  1  0  0  0  0 
 16 18  1  0  0  0  0 
 17 25  1  0  0  0  0 
 17 26  1  0  0  0  0 
 20 23  1  0  0  0  0 
 21 24  1  0  0  0  0 
 23 27  1  0  0  0  0 
 24 27  1  0  0  0  0 
 25 28  1  0  0  0  0 
 26 29  1  0  0  0  0 
 28 30  1  0  0  0  0 
 29 30  1  0  0  0  0 
M  ISO  1   1  32
M  END
> <cdk:Title>
null

> <cdk:Remark>
null

> <PUBCHEM_COMPOUND_CID>
17725426

> <AMMOLITE_STRUCTURE_ID>
17725426_STRUCT

$$$$
