
  CDK     1217142145

 14 16  0  0  0  0  0  0  0  0999 V2000
    4.4094   -0.8604    0.0000 N   0  0  0  0  0  0  0  0  0  0  0  0
    6.1694    1.1743    0.0000 C   0  0  1  0  0  0  0  0  0  0  0  0
    7.0354    0.6743    0.0000 C   0  0  2  0  0  0  0  0  0  0  0  0
    5.3033    0.6743    0.0000 C   0  0  1  0  0  0  0  0  0  0  0  0
    5.3033   -0.3257    0.0000 C   0  0  1  0  0  0  0  0  0  0  0  0
    7.9454    1.1811    0.0000 C   0  0  0  0  0  0  0  0  0  0  0  0
    7.0354   -0.3257    0.0000 C   0  0  1  0  0  0  0  0  0  0  0  0
    6.1533    2.2158    0.0000 C   0  0  2  0  0  0  0  0  0  0  0  0
    6.1694   -0.8257    0.0000 C   0  0  2  0  0  0  0  0  0  0  0  0
    7.9534    2.2227    0.0000 C   0  0  0  0  0  0  0  0  0  0  0  0
    7.0513    2.7436    0.0000 C   0  0  0  0  0  0  0  0  0  0  0  0
    4.4094    1.2090    0.0000 C   0  0  0  0  0  0  0  0  0  0  0  0
    3.5033   -0.3465    0.0000 C   0  0  1  0  0  0  0  0  0  0  0  0
    3.5033    0.6951    0.0000 C   0  0  0  0  0  0  0  0  0  0  0  0
  1  5  1  0  0  0  0 
  1 13  1  0  0  0  0 
  2  3  1  0  0  0  0 
  2  4  1  0  0  0  0 
  2  8  1  0  0  0  0 
  3  6  1  0  0  0  0 
  3  7  1  0  0  0  0 
  4  5  1  0  0  0  0 
  4 12  1  0  0  0  0 
  5  9  1  0  0  0  0 
  6 10  1  0  0  0  0 
  7  9  1  0  0  0  0 
  8 11  1  0  0  0  0 
 10 11  1  0  0  0  0 
 12 14  1  0  0  0  0 
 13 14  1  0  0  0  0 
M  ISO  1   1  16
M  END
> <cdk:Title>
null

> <cdk:Remark>
null

> <PUBCHEM_COMPOUND_CID>
177270

> <AMMOLITE_STRUCTURE_ID>
177270_STRUCT

$$$$
