
  CDK     1217142145

 20 22  0  0  0  0  0  0  0  0999 V2000
    4.5981   -0.3023    0.0000 N   0  0  0  0  0  0  0  0  0  0  0  0
    4.7026    0.6922    0.0000 N   0  0  0  0  0  0  0  0  0  0  0  0
    6.0875    1.8137    0.0000 N   0  0  0  0  0  0  0  0  0  0  0  0
    8.4833    2.9363    0.0000 N   0  0  0  0  0  0  0  0  0  0  0  0
    8.9833    3.8023    0.0000 N   0  0  0  0  0  0  0  0  0  0  0  0
    3.7320   -0.8023    0.0000 C   0  0  0  0  0  0  0  0  0  0  0  0
    5.5116   -0.7090    0.0000 C   0  0  0  0  0  0  0  0  0  0  0  0
    3.7320   -1.8023    0.0000 C   0  0  0  0  0  0  0  0  0  0  0  0
    5.6808    0.9001    0.0000 C   0  0  0  0  0  0  0  0  0  0  0  0
    6.1808    0.0341    0.0000 C   0  0  0  0  0  0  0  0  0  0  0  0
    2.8660   -2.3023    0.0000 C   0  0  0  0  0  0  0  0  0  0  0  0
    4.5981   -2.3023    0.0000 C   0  0  0  0  0  0  0  0  0  0  0  0
    2.8660   -3.3023    0.0000 C   0  0  0  0  0  0  0  0  0  0  0  0
    7.4888    2.8318    0.0000 C   0  0  0  0  0  0  0  0  0  0  0  0
    7.0820    1.9182    0.0000 C   0  0  0  0  0  0  0  0  0  0  0  0
    4.5981   -3.3023    0.0000 C   0  0  0  0  0  0  0  0  0  0  0  0
    3.7320   -3.8023    0.0000 C   0  0  0  0  0  0  0  0  0  0  0  0
    9.1524    2.1931    0.0000 C   0  0  0  0  0  0  0  0  0  0  0  0
   10.0659    2.5999    0.0000 C   0  0  0  0  0  0  0  0  0  0  0  0
    9.9614    3.5944    0.0000 C   0  0  0  0  0  0  0  0  0  0  0  0
  1  2  1  0  0  0  0 
  1  6  1  0  0  0  0 
  1  7  1  0  0  0  0 
  2  9  1  0  0  0  0 
  3  9  1  0  0  0  0 
  3 15  1  0  0  0  0 
  4  5  1  0  0  0  0 
  4 14  1  0  0  0  0 
  4 18  1  0  0  0  0 
  5 20  1  0  0  0  0 
  6  8  1  0  0  0  0 
  7 10  1  0  0  0  0 
  8 11  1  0  0  0  0 
  8 12  1  0  0  0  0 
  9 10  1  0  0  0  0 
 11 13  1  0  0  0  0 
 12 16  1  0  0  0  0 
 13 17  1  0  0  0  0 
 14 15  1  0  0  0  0 
 16 17  1  0  0  0  0 
 18 19  1  0  0  0  0 
 19 20  1  0  0  0  0 
M  END
> <cdk:Title>
null

> <cdk:Remark>
null

> <PUBCHEM_COMPOUND_CID>
19502787

> <AMMOLITE_STRUCTURE_ID>
19502787_STRUCT

$$$$
