
  CDK     1217142145

 17 19  0  0  0  0  0  0  0  0999 V2000
    5.4641   -0.5173    0.0000 N   0  0  0  0  0  0  0  0  0  0  0  0
    7.2241    0.4480    0.0000 N   0  0  0  0  0  0  0  0  0  0  0  0
    4.5981    0.9827    0.0000 N   0  0  0  0  0  0  0  0  0  0  0  0
    8.1301    2.0035    0.0000 N   0  0  0  0  0  0  0  0  0  0  0  0
    5.4641    2.4827    0.0000 N   0  0  0  0  0  0  0  0  0  0  0  0
    6.3301    0.9827    0.0000 C   0  0  0  0  0  0  0  0  0  0  0  0
    4.5981   -1.0173    0.0000 C   0  0  0  0  0  0  0  0  0  0  0  0
    5.4641    0.4827    0.0000 C   0  0  0  0  0  0  0  0  0  0  0  0
    6.3301    1.9827    0.0000 C   0  0  0  0  0  0  0  0  0  0  0  0
    3.7320   -0.5173    0.0000 C   0  0  0  0  0  0  0  0  0  0  0  0
    2.8660   -1.0173    0.0000 C   0  0  0  0  0  0  0  0  0  0  0  0
    8.1301    0.9619    0.0000 C   0  0  0  0  0  0  0  0  0  0  0  0
    4.5981   -2.0173    0.0000 C   0  0  0  0  0  0  0  0  0  0  0  0
    2.8660   -2.0173    0.0000 C   0  0  0  0  0  0  0  0  0  0  0  0
    3.7320   -2.5173    0.0000 C   0  0  0  0  0  0  0  0  0  0  0  0
    7.2241    2.5173    0.0000 C   0  0  0  0  0  0  0  0  0  0  0  0
    4.5981    1.9827    0.0000 C   0  0  0  0  0  0  0  0  0  0  0  0
  1  7  1  0  0  0  0 
  1  8  1  0  0  0  0 
  2  6  1  0  0  0  0 
  2 12  1  0  0  0  0 
  3  8  1  0  0  0  0 
  3 17  1  0  0  0  0 
  4 12  1  0  0  0  0 
  4 16  1  0  0  0  0 
  5  9  1  0  0  0  0 
  5 17  1  0  0  0  0 
  6  8  1  0  0  0  0 
  6  9  1  0  0  0  0 
  7 10  1  0  0  0  0 
  7 13  1  0  0  0  0 
  9 16  1  0  0  0  0 
 10 11  1  0  0  0  0 
 11 14  1  0  0  0  0 
 13 15  1  0  0  0  0 
 14 15  1  0  0  0  0 
M  END
> <cdk:Title>
null

> <cdk:Remark>
null

> <PUBCHEM_COMPOUND_CID>
19709223

> <AMMOLITE_STRUCTURE_ID>
19709223_STRUCT

$$$$
