
  CDK     1217142145

 36 42  0  0  0  0  0  0  0  0999 V2000
    7.2876    1.3388    0.0000 N   0  0  0  0  0  0  0  0  0  0  0  0
    8.8228   -0.0307    0.0000 N   0  0  0  0  0  0  0  0  0  0  0  0
    5.8176   -0.0307    0.0000 N   0  0  0  0  0  0  0  0  0  0  0  0
    7.3210   -1.4002    0.0000 N   0  0  0  0  0  0  0  0  0  0  0  0
    6.4856    1.9733    0.0000 C   0  0  0  0  0  0  0  0  0  0  0  0
    8.1230    2.0068    0.0000 C   0  0  0  0  0  0  0  0  0  0  0  0
    5.5179    1.7055    0.0000 C   0  0  0  0  0  0  0  0  0  0  0  0
    7.7881    2.9410    0.0000 C   0  0  0  0  0  0  0  0  0  0  0  0
    6.7870    2.9410    0.0000 C   0  0  0  0  0  0  0  0  0  0  0  0
    9.4238   -0.7657    0.0000 C   0  0  0  0  0  0  0  0  0  0  0  0
    9.3904    0.7713    0.0000 C   0  0  0  0  0  0  0  0  0  0  0  0
    9.0907    1.7055    0.0000 C   0  0  0  0  0  0  0  0  0  0  0  0
    9.1242   -1.7333    0.0000 C   0  0  0  0  0  0  0  0  0  0  0  0
    5.2500    0.7378    0.0000 C   0  0  0  0  0  0  0  0  0  0  0  0
    4.8167    2.4184    0.0000 C   0  0  0  0  0  0  0  0  0  0  0  0
   10.3597   -0.4978    0.0000 C   0  0  0  0  0  0  0  0  0  0  0  0
   10.3597    0.5034    0.0000 C   0  0  0  0  0  0  0  0  0  0  0  0
    8.1230   -2.0012    0.0000 C   0  0  0  0  0  0  0  0  0  0  0  0
    9.8310   -2.4407    0.0000 C   0  0  0  0  0  0  0  0  0  0  0  0
    4.2824    0.4699    0.0000 C   0  0  0  0  0  0  0  0  0  0  0  0
    5.2500   -0.7991    0.0000 C   0  0  0  0  0  0  0  0  0  0  0  0
    5.0834    3.3821    0.0000 C   0  0  0  0  0  0  0  0  0  0  0  0
    3.8486    2.1675    0.0000 C   0  0  0  0  0  0  0  0  0  0  0  0
    6.5191   -2.0347    0.0000 C   0  0  0  0  0  0  0  0  0  0  0  0
    7.8216   -2.9689    0.0000 C   0  0  0  0  0  0  0  0  0  0  0  0
    4.2824   -0.5313    0.0000 C   0  0  0  0  0  0  0  0  0  0  0  0
    5.5514   -1.7333    0.0000 C   0  0  0  0  0  0  0  0  0  0  0  0
    9.5719   -3.4065    0.0000 C   0  0  0  0  0  0  0  0  0  0  0  0
   10.7970   -2.1822    0.0000 C   0  0  0  0  0  0  0  0  0  0  0  0
    6.8204   -2.9689    0.0000 C   0  0  0  0  0  0  0  0  0  0  0  0
    3.4142    3.8442    0.0000 C   0  0  0  0  0  0  0  0  0  0  0  0
    4.3822    4.0950    0.0000 C   0  0  0  0  0  0  0  0  0  0  0  0
    3.1474    2.8804    0.0000 C   0  0  0  0  0  0  0  0  0  0  0  0
   11.2448   -3.8554    0.0000 C   0  0  0  0  0  0  0  0  0  0  0  0
   10.2788   -4.1139    0.0000 C   0  0  0  0  0  0  0  0  0  0  0  0
   11.5039   -2.8895    0.0000 C   0  0  0  0  0  0  0  0  0  0  0  0
  1  5  1  0  0  0  0 
  1  6  1  0  0  0  0 
  2 10  1  0  0  0  0 
  2 11  1  0  0  0  0 
  3 14  1  0  0  0  0 
  3 21  1  0  0  0  0 
  4 18  1  0  0  0  0 
  4 24  1  0  0  0  0 
  5  7  1  0  0  0  0 
  5  9  1  0  0  0  0 
  6  8  1  0  0  0  0 
  6 12  1  0  0  0  0 
  7 14  1  0  0  0  0 
  7 15  1  0  0  0  0 
  8  9  1  0  0  0  0 
 10 13  1  0  0  0  0 
 10 16  1  0  0  0  0 
 11 12  1  0  0  0  0 
 11 17  1  0  0  0  0 
 13 18  1  0  0  0  0 
 13 19  1  0  0  0  0 
 14 20  1  0  0  0  0 
 15 22  1  0  0  0  0 
 15 23  1  0  0  0  0 
 16 17  1  0  0  0  0 
 18 25  1  0  0  0  0 
 19 28  1  0  0  0  0 
 19 29  1  0  0  0  0 
 20 26  1  0  0  0  0 
 21 26  1  0  0  0  0 
 21 27  1  0  0  0  0 
 22 32  1  0  0  0  0 
 23 33  1  0  0  0  0 
 24 27  1  0  0  0  0 
 24 30  1  0  0  0  0 
 25 30  1  0  0  0  0 
 28 35  1  0  0  0  0 
 29 36  1  0  0  0  0 
 31 32  1  0  0  0  0 
 31 33  1  0  0  0  0 
 34 35  1  0  0  0  0 
 34 36  1  0  0  0  0 
M  END
> <cdk:Title>
null

> <cdk:Remark>
null

> <PUBCHEM_COMPOUND_CID>
21609844

> <AMMOLITE_STRUCTURE_ID>
21609844_STRUCT

$$$$
