
  CDK     1217142145

 35 40  0  0  0  0  0  0  0  0999 V2000
    8.3090    0.3568    0.0000 N   0  0  0  0  0  0  0  0  0  0  0  0
    6.5000    3.9059    0.0000 N   0  0  0  0  0  0  0  0  0  0  0  0
    6.1963   -1.1747    0.0000 N   0  0  0  0  0  0  0  0  0  0  0  0
    7.9431   -2.6383    0.0000 N   0  0  0  0  0  0  0  0  0  0  0  0
    5.5000    2.1739    0.0000 N   0  0  0  0  0  0  0  0  0  0  0  0
    7.5000   -0.2310    0.0000 C   0  0  1  0  0  0  0  0  0  0  0  0
    6.6910    0.3568    0.0000 C   0  0  1  0  0  0  0  0  0  0  0  0
    7.1904   -1.1756    0.0000 C   0  0  1  0  0  0  0  0  0  0  0  0
    7.0000    1.3079    0.0000 C   0  0  2  0  0  0  0  0  0  0  0  0
    8.0000    1.3079    0.0000 C   0  0  1  0  0  0  0  0  0  0  0  0
    5.8883   -0.2296    0.0000 C   0  0  0  0  0  0  0  0  0  0  0  0
    8.4603   -0.3997    0.0000 C   0  0  0  0  0  0  0  0  0  0  0  0
    7.2527   -2.1486    0.0000 C   0  0  0  0  0  0  0  0  0  0  0  0
    6.5000    2.1739    0.0000 C   0  0  0  0  0  0  0  0  0  0  0  0
    7.9282   -3.6382    0.0000 C   0  0  0  0  0  0  0  0  0  0  0  0
    8.7716   -2.2957    0.0000 C   0  0  0  0  0  0  0  0  0  0  0  0
    9.0371   -1.3247    0.0000 C   0  0  0  0  0  0  0  0  0  0  0  0
    8.5000    2.1739    0.0000 C   0  0  0  0  0  0  0  0  0  0  0  0
    7.0548   -4.1253    0.0000 C   0  0  0  0  0  0  0  0  0  0  0  0
    8.7867   -4.1510    0.0000 C   0  0  0  0  0  0  0  0  0  0  0  0
    8.7718   -5.1509    0.0000 C   0  0  0  0  0  0  0  0  0  0  0  0
    7.0400   -5.1252    0.0000 C   0  0  0  0  0  0  0  0  0  0  0  0
    7.8985   -5.6380    0.0000 C   0  0  0  0  0  0  0  0  0  0  0  0
    8.0000    3.0399    0.0000 C   0  0  0  0  0  0  0  0  0  0  0  0
    5.0000    3.0399    0.0000 C   0  0  1  0  0  0  0  0  0  0  0  0
    8.5000    3.9059    0.0000 C   0  0  0  0  0  0  0  0  0  0  0  0
    5.5000    3.9059    0.0000 C   0  0  0  0  0  0  0  0  0  0  0  0
    4.0000    3.0399    0.0000 C   0  0  0  0  0  0  0  0  0  0  0  0
    8.0000    4.7720    0.0000 C   0  0  0  0  0  0  0  0  0  0  0  0
    7.0000    4.7720    0.0000 C   0  0  0  0  0  0  0  0  0  0  0  0
    3.5000    3.9059    0.0000 C   0  0  0  0  0  0  0  0  0  0  0  0
    3.5000    2.1739    0.0000 C   0  0  0  0  0  0  0  0  0  0  0  0
    2.5000    3.9059    0.0000 C   0  0  0  0  0  0  0  0  0  0  0  0
    2.5000    2.1739    0.0000 C   0  0  0  0  0  0  0  0  0  0  0  0
    2.0000    3.0399    0.0000 C   0  0  0  0  0  0  0  0  0  0  0  0
  6  1  1  6  0  0  0 
  1 10  1  0  0  0  0 
  2 27  1  0  0  0  0 
  2 30  1  0  0  0  0 
  3  8  1  0  0  0  0 
  3 11  1  0  0  0  0 
  4 13  1  0  0  0  0 
  4 15  1  0  0  0  0 
  4 16  1  0  0  0  0 
  5 14  1  0  0  0  0 
  5 25  1  0  0  0  0 
  6  7  1  0  0  0  0 
  6  8  1  0  0  0  0 
  6 12  1  0  0  0  0 
  7  9  1  0  0  0  0 
  7 11  1  0  0  0  0 
  8 13  1  0  0  0  0 
  9 10  1  0  0  0  0 
  9 14  1  0  0  0  0 
 10 18  1  0  0  0  0 
 12 17  1  0  0  0  0 
 15 19  1  0  0  0  0 
 15 20  1  0  0  0  0 
 16 17  1  0  0  0  0 
 18 24  1  0  0  0  0 
 19 22  1  0  0  0  0 
 20 21  1  0  0  0  0 
 21 23  1  0  0  0  0 
 22 23  1  0  0  0  0 
 24 26  1  0  0  0  0 
 25 27  1  0  0  0  0 
 25 28  1  6  0  0  0 
 26 29  1  0  0  0  0 
 28 31  1  0  0  0  0 
 28 32  1  0  0  0  0 
 29 30  1  0  0  0  0 
 31 33  1  0  0  0  0 
 32 34  1  0  0  0  0 
 33 35  1  0  0  0  0 
 34 35  1  0  0  0  0 
M  ISO  1   1  16
M  ISO  1   2  16
M  END
> <cdk:Title>
null

> <cdk:Remark>
null

> <PUBCHEM_COMPOUND_CID>
23870737

> <AMMOLITE_STRUCTURE_ID>
23870737_STRUCT

$$$$
