
  CDK     1217142145

 25 29  0  0  0  0  0  0  0  0999 V2000
    5.5321   -1.8840    0.0000 N   0  0  0  0  0  0  0  0  0  0  0  0
    4.6660   -3.3840    0.0000 N   0  0  0  0  0  0  0  0  0  0  0  0
    6.4783   -1.5792    0.0000 N   0  0  0  0  0  0  0  0  0  0  0  0
    6.4783   -3.1887    0.0000 N   0  0  0  0  0  0  0  0  0  0  0  0
    4.6660   -1.3840    0.0000 C   0  0  3  0  0  0  0  0  0  0  0  0
    3.8000   -1.8840    0.0000 C   0  0  0  0  0  0  0  0  0  0  0  0
    3.8000   -2.8840    0.0000 C   0  0  0  0  0  0  0  0  0  0  0  0
    2.9061   -3.4186    0.0000 C   0  0  0  0  0  0  0  0  0  0  0  0
    2.0000   -2.9048    0.0000 C   0  0  0  0  0  0  0  0  0  0  0  0
    2.0000   -1.8632    0.0000 C   0  0  0  0  0  0  0  0  0  0  0  0
    2.9061   -1.3493    0.0000 C   0  0  0  0  0  0  0  0  0  0  0  0
    4.6660   -0.3840    0.0000 C   0  0  0  0  0  0  0  0  0  0  0  0
    5.5321   -2.8840    0.0000 C   0  0  0  0  0  0  0  0  0  0  0  0
    7.0619   -2.3840    0.0000 C   0  0  0  0  0  0  0  0  0  0  0  0
    5.5321    0.1160    0.0000 C   0  0  0  0  0  0  0  0  0  0  0  0
    3.8000    0.1160    0.0000 C   0  0  0  0  0  0  0  0  0  0  0  0
    8.0619   -2.3840    0.0000 C   0  0  0  0  0  0  0  0  0  0  0  0
    5.5321    1.1160    0.0000 C   0  0  0  0  0  0  0  0  0  0  0  0
    3.8000    1.1160    0.0000 C   0  0  0  0  0  0  0  0  0  0  0  0
    4.6660    1.6160    0.0000 C   0  0  0  0  0  0  0  0  0  0  0  0
    8.5619   -3.2500    0.0000 C   0  0  0  0  0  0  0  0  0  0  0  0
    8.5619   -1.5180    0.0000 C   0  0  0  0  0  0  0  0  0  0  0  0
    9.5619   -3.2500    0.0000 C   0  0  0  0  0  0  0  0  0  0  0  0
    9.5619   -1.5180    0.0000 C   0  0  0  0  0  0  0  0  0  0  0  0
   10.0619   -2.3840    0.0000 C   0  0  0  0  0  0  0  0  0  0  0  0
  1  3  1  0  0  0  0 
  1  5  1  0  0  0  0 
  1 13  1  0  0  0  0 
  2  7  1  0  0  0  0 
  2 13  1  0  0  0  0 
  3 14  1  0  0  0  0 
  4 13  1  0  0  0  0 
  4 14  1  0  0  0  0 
  5  6  1  0  0  0  0 
  5 12  1  0  0  0  0 
  6  7  1  0  0  0  0 
  6 11  1  0  0  0  0 
  7  8  1  0  0  0  0 
  8  9  1  0  0  0  0 
  9 10  1  0  0  0  0 
 10 11  1  0  0  0  0 
 12 15  1  0  0  0  0 
 12 16  1  0  0  0  0 
 14 17  1  0  0  0  0 
 15 18  1  0  0  0  0 
 16 19  1  0  0  0  0 
 17 21  1  0  0  0  0 
 17 22  1  0  0  0  0 
 18 20  1  0  0  0  0 
 19 20  1  0  0  0  0 
 21 23  1  0  0  0  0 
 22 24  1  0  0  0  0 
 23 25  1  0  0  0  0 
 24 25  1  0  0  0  0 
M  END
> <cdk:Title>
null

> <cdk:Remark>
null

> <PUBCHEM_COMPOUND_CID>
23905966

> <AMMOLITE_STRUCTURE_ID>
23905966_STRUCT

$$$$
