
  CDK     1217142145

 27 30  0  0  0  0  0  0  0  0999 V2000
    9.1671    2.2561    0.0000 N   0  0  0  0  0  0  0  0  0  0  0  0
    6.2781   -1.0079    0.0000 N   0  0  0  0  0  0  0  0  0  0  0  0
    4.6783   -4.7246    0.0000 N   0  0  0  0  0  0  0  0  0  0  0  0
    5.9674   -1.9584    0.0000 C   0  0  0  0  0  0  0  0  0  0  0  0
    4.9889   -2.1646    0.0000 C   0  0  0  0  0  0  0  0  0  0  0  0
    4.6783   -3.1151    0.0000 C   0  0  0  0  0  0  0  0  0  0  0  0
    6.5888   -0.0573    0.0000 C   0  0  0  0  0  0  0  0  0  0  0  0
    3.7320   -3.4199    0.0000 C   0  0  0  0  0  0  0  0  0  0  0  0
    3.7320   -4.4199    0.0000 C   0  0  0  0  0  0  0  0  0  0  0  0
    5.2619   -3.9199    0.0000 C   0  0  0  0  0  0  0  0  0  0  0  0
    7.5673    0.1489    0.0000 C   0  0  0  0  0  0  0  0  0  0  0  0
    2.8660   -2.9199    0.0000 C   0  0  0  0  0  0  0  0  0  0  0  0
    2.8660   -4.9199    0.0000 C   0  0  0  0  0  0  0  0  0  0  0  0
    7.8779    1.0994    0.0000 C   0  0  0  0  0  0  0  0  0  0  0  0
    8.2351   -0.5954    0.0000 C   0  0  0  0  0  0  0  0  0  0  0  0
    2.0000   -3.4199    0.0000 C   0  0  0  0  0  0  0  0  0  0  0  0
    2.0000   -4.4199    0.0000 C   0  0  0  0  0  0  0  0  0  0  0  0
    8.8564    1.3056    0.0000 C   0  0  0  0  0  0  0  0  0  0  0  0
    9.2136   -0.3892    0.0000 C   0  0  0  0  0  0  0  0  0  0  0  0
    9.5243    0.5613    0.0000 C   0  0  0  0  0  0  0  0  0  0  0  0
   10.1456    2.4623    0.0000 C   0  0  0  0  0  0  0  0  0  0  0  0
   10.4563    3.4129    0.0000 C   0  0  0  0  0  0  0  0  0  0  0  0
   11.4348    3.6191    0.0000 C   0  0  0  0  0  0  0  0  0  0  0  0
    9.7884    4.1572    0.0000 C   0  0  0  0  0  0  0  0  0  0  0  0
   11.7454    4.5696    0.0000 C   0  0  0  0  0  0  0  0  0  0  0  0
   10.0991    5.1077    0.0000 C   0  0  0  0  0  0  0  0  0  0  0  0
   11.0776    5.3139    0.0000 C   0  0  0  0  0  0  0  0  0  0  0  0
  1 18  1  0  0  0  0 
  1 21  1  0  0  0  0 
  2  4  1  0  0  0  0 
  2  7  1  0  0  0  0 
  3  9  1  0  0  0  0 
  3 10  1  0  0  0  0 
  4  5  1  0  0  0  0 
  5  6  1  0  0  0  0 
  6  8  1  0  0  0  0 
  6 10  1  0  0  0  0 
  7 11  1  0  0  0  0 
  8  9  1  0  0  0  0 
  8 12  1  0  0  0  0 
  9 13  1  0  0  0  0 
 11 14  1  0  0  0  0 
 11 15  1  0  0  0  0 
 12 16  1  0  0  0  0 
 13 17  1  0  0  0  0 
 14 18  1  0  0  0  0 
 15 19  1  0  0  0  0 
 16 17  1  0  0  0  0 
 18 20  1  0  0  0  0 
 19 20  1  0  0  0  0 
 21 22  1  0  0  0  0 
 22 23  1  0  0  0  0 
 22 24  1  0  0  0  0 
 23 25  1  0  0  0  0 
 24 26  1  0  0  0  0 
 25 27  1  0  0  0  0 
 26 27  1  0  0  0  0 
M  CHG  1   2   1
M  ISO  1   1  16
M  END
> <cdk:Title>
null

> <cdk:Remark>
null

> <PUBCHEM_COMPOUND_CID>
27137867

> <AMMOLITE_STRUCTURE_ID>
27137867_STRUCT

$$$$
