
  CDK     1217142145

 23 25  0  0  0  0  0  0  0  0999 V2000
    6.0223   -2.0313    0.0000 N   0  0  0  0  0  0  0  0  0  0  0  0
    4.1701    4.0875    0.0000 N   0  0  0  0  0  0  0  0  0  0  0  0
    3.9444    1.4514    0.0000 N   0  0  0  0  0  0  0  0  0  0  0  0
    4.4042   -2.0313    0.0000 N   0  0  0  0  0  0  0  0  0  0  0  0
    4.1255   -0.2712    0.0000 C   0  0  0  0  0  0  0  0  0  0  0  0
    4.7132   -1.0802    0.0000 C   0  0  0  0  0  0  0  0  0  0  0  0
    4.3511    2.3649    0.0000 C   0  0  0  0  0  0  0  0  0  0  0  0
    5.2132   -3.6191    0.0000 C   0  0  0  0  0  0  0  0  0  0  0  0
    5.2132   -2.6191    0.0000 C   0  0  0  0  0  0  0  0  0  0  0  0
    4.5322    0.6424    0.0000 C   0  0  0  0  0  0  0  0  0  0  0  0
    3.7634    3.1739    0.0000 C   0  0  0  0  0  0  0  0  0  0  0  0
    5.7132   -1.0802    0.0000 C   0  0  0  0  0  0  0  0  0  0  0  0
    6.0793   -4.1191    0.0000 C   0  0  0  0  0  0  0  0  0  0  0  0
    4.3472   -4.1191    0.0000 C   0  0  0  0  0  0  0  0  0  0  0  0
    5.2132   -5.6191    0.0000 C   0  0  0  0  0  0  0  0  0  0  0  0
    6.0793   -5.1191    0.0000 C   0  0  0  0  0  0  0  0  0  0  0  0
    4.3472   -5.1191    0.0000 C   0  0  0  0  0  0  0  0  0  0  0  0
    3.5823    4.8965    0.0000 C   0  0  0  0  0  0  0  0  0  0  0  0
    3.9890    5.8100    0.0000 C   0  0  0  0  0  0  0  0  0  0  0  0
    2.5878    4.7920    0.0000 C   0  0  0  0  0  0  0  0  0  0  0  0
    3.4013    6.6191    0.0000 C   0  0  0  0  0  0  0  0  0  0  0  0
    2.0000    5.6010    0.0000 C   0  0  0  0  0  0  0  0  0  0  0  0
    2.4067    6.5145    0.0000 C   0  0  0  0  0  0  0  0  0  0  0  0
  1  9  1  0  0  0  0 
  1 12  1  0  0  0  0 
  2 11  1  0  0  0  0 
  2 18  1  0  0  0  0 
  3  7  1  0  0  0  0 
  3 10  1  0  0  0  0 
  4  6  1  0  0  0  0 
  4  9  1  0  0  0  0 
  5  6  1  0  0  0  0 
  5 10  1  0  0  0  0 
  6 12  1  0  0  0  0 
  7 11  1  0  0  0  0 
  8  9  1  0  0  0  0 
  8 13  1  0  0  0  0 
  8 14  1  0  0  0  0 
 13 16  1  0  0  0  0 
 14 17  1  0  0  0  0 
 15 16  1  0  0  0  0 
 15 17  1  0  0  0  0 
 18 19  1  0  0  0  0 
 18 20  1  0  0  0  0 
 19 21  1  0  0  0  0 
 20 22  1  0  0  0  0 
 21 23  1  0  0  0  0 
 22 23  1  0  0  0  0 
M  ISO  1   1  32
M  ISO  1   2  16
M  END
> <cdk:Title>
null

> <cdk:Remark>
null

> <PUBCHEM_COMPOUND_CID>
28542993

> <AMMOLITE_STRUCTURE_ID>
28542993_STRUCT

$$$$

  CDK     1217142145

 23 25  0  0  0  0  0  0  0  0999 V2000
    4.5853   -2.1335    0.0000 N   0  0  0  0  0  0  0  0  0  0  0  0
    4.7132    0.5401    0.0000 N   0  0  0  0  0  0  0  0  0  0  0  0
    3.9444    3.0717    0.0000 N   0  0  0  0  0  0  0  0  0  0  0  0
    6.2033   -2.1335    0.0000 N   0  0  0  0  0  0  0  0  0  0  0  0
    5.8943   -1.1825    0.0000 N   0  0  0  0  0  0  0  0  0  0  0  0
    5.3943   -3.7213    0.0000 C   0  0  0  0  0  0  0  0  0  0  0  0
    5.3943   -5.7213    0.0000 C   0  0  0  0  0  0  0  0  0  0  0  0
    4.5283   -5.2213    0.0000 C   0  0  0  0  0  0  0  0  0  0  0  0
    6.2603   -5.2213    0.0000 C   0  0  0  0  0  0  0  0  0  0  0  0
    4.5283   -4.2213    0.0000 C   0  0  0  0  0  0  0  0  0  0  0  0
    6.2603   -4.2213    0.0000 C   0  0  0  0  0  0  0  0  0  0  0  0
    5.3943   -2.7213    0.0000 C   0  0  0  0  0  0  0  0  0  0  0  0
    3.7634    4.7942    0.0000 C   0  0  0  0  0  0  0  0  0  0  0  0
    4.8943   -1.1825    0.0000 C   0  0  0  0  0  0  0  0  0  0  0  0
    4.3065   -0.3734    0.0000 C   0  0  0  0  0  0  0  0  0  0  0  0
    2.5878    6.4123    0.0000 C   0  0  0  0  0  0  0  0  0  0  0  0
    4.5322    2.2627    0.0000 C   0  0  0  0  0  0  0  0  0  0  0  0
    4.1701    5.7078    0.0000 C   0  0  0  0  0  0  0  0  0  0  0  0
    2.7688    4.6897    0.0000 C   0  0  0  0  0  0  0  0  0  0  0  0
    4.3511    3.9852    0.0000 C   0  0  0  0  0  0  0  0  0  0  0  0
    3.5823    6.5168    0.0000 C   0  0  0  0  0  0  0  0  0  0  0  0
    2.1810    5.4987    0.0000 C   0  0  0  0  0  0  0  0  0  0  0  0
    4.1254    1.3491    0.0000 C   0  0  0  0  0  0  0  0  0  0  0  0
  1 12  1  0  0  0  0 
  1 14  1  0  0  0  0 
  2 15  1  0  0  0  0 
  2 23  1  0  0  0  0 
  3 17  1  0  0  0  0 
  3 20  1  0  0  0  0 
  4  5  1  0  0  0  0 
  4 12  1  0  0  0  0 
  5 14  1  0  0  0  0 
  6 10  1  0  0  0  0 
  6 11  1  0  0  0  0 
  6 12  1  0  0  0  0 
  7  8  1  0  0  0  0 
  7  9  1  0  0  0  0 
  8 10  1  0  0  0  0 
  9 11  1  0  0  0  0 
 13 18  1  0  0  0  0 
 13 19  1  0  0  0  0 
 13 20  1  0  0  0  0 
 14 15  1  0  0  0  0 
 16 21  1  0  0  0  0 
 16 22  1  0  0  0  0 
 17 23  1  0  0  0  0 
 18 21  1  0  0  0  0 
 19 22  1  0  0  0  0 
M  ISO  1   1  16
M  ISO  1   2  16
M  END
> <cdk:Title>
null

> <cdk:Remark>
null

> <PUBCHEM_COMPOUND_CID>
42006409

> <AMMOLITE_STRUCTURE_ID>
42006409_STRUCT

$$$$
