
  CDK     1217142145

 21 24  0  0  0  0  0  0  0  0999 V2000
    8.5206    2.7128    0.0000 N   0  0  0  0  0  0  0  0  0  0  0  0
    7.2566    0.4549    0.0000 N   0  0  0  0  0  0  0  0  0  0  0  0
    4.6783   -1.8586    0.0000 N   0  0  0  0  0  0  0  0  0  0  0  0
    6.2781    0.2487    0.0000 N   0  0  0  0  0  0  0  0  0  0  0  0
    7.5673    1.4054    0.0000 C   0  0  2  0  0  0  0  0  0  0  0  0
    8.5189    1.7128    0.0000 C   0  0  0  0  0  0  0  0  0  0  0  0
    6.9809    2.2154    0.0000 C   0  0  0  0  0  0  0  0  0  0  0  0
    7.5701    3.0234    0.0000 C   0  0  0  0  0  0  0  0  0  0  0  0
    5.2619   -2.6633    0.0000 C   0  0  1  0  0  0  0  0  0  0  0  0
    4.6783   -3.4680    0.0000 C   0  0  0  0  0  0  0  0  0  0  0  0
    7.9244   -0.2894    0.0000 C   0  0  0  0  0  0  0  0  0  0  0  0
    5.9674   -0.7018    0.0000 C   0  0  0  0  0  0  0  0  0  0  0  0
    7.6138   -1.2399    0.0000 C   0  0  0  0  0  0  0  0  0  0  0  0
    6.6353   -1.4461    0.0000 C   0  0  0  0  0  0  0  0  0  0  0  0
    3.7320   -2.1633    0.0000 C   0  0  0  0  0  0  0  0  0  0  0  0
    3.7320   -3.1633    0.0000 C   0  0  0  0  0  0  0  0  0  0  0  0
    4.9889   -0.9081    0.0000 C   0  0  0  0  0  0  0  0  0  0  0  0
    2.8660   -1.6633    0.0000 C   0  0  0  0  0  0  0  0  0  0  0  0
    2.8660   -3.6633    0.0000 C   0  0  0  0  0  0  0  0  0  0  0  0
    2.0000   -2.1633    0.0000 C   0  0  0  0  0  0  0  0  0  0  0  0
    2.0000   -3.1633    0.0000 C   0  0  0  0  0  0  0  0  0  0  0  0
  1  6  1  0  0  0  0 
  1  8  1  0  0  0  0 
  2  4  1  0  0  0  0 
  5  2  1  1  0  0  0 
  2 11  1  0  0  0  0 
  3  9  1  0  0  0  0 
  3 15  1  0  0  0  0 
  3 17  1  0  0  0  0 
  4 12  1  0  0  0  0 
  5  6  1  0  0  0  0 
  5  7  1  0  0  0  0 
  7  8  1  0  0  0  0 
  9 10  1  0  0  0  0 
 10 16  1  0  0  0  0 
 11 13  1  0  0  0  0 
 12 14  1  0  0  0  0 
 12 17  1  0  0  0  0 
 13 14  1  0  0  0  0 
 15 16  1  0  0  0  0 
 15 18  1  0  0  0  0 
 16 19  1  0  0  0  0 
 18 20  1  0  0  0  0 
 19 21  1  0  0  0  0 
 20 21  1  0  0  0  0 
M  ISO  1   1  32
M  END
> <cdk:Title>
null

> <cdk:Remark>
null

> <PUBCHEM_COMPOUND_CID>
29359790

> <AMMOLITE_STRUCTURE_ID>
29359790_STRUCT

$$$$
