
  CDK     1217142145

 18 20  0  0  0  0  0  0  0  0999 V2000
    7.5519   -1.6981    0.0000 N   0  0  0  0  0  0  0  0  0  0  0  0
    5.4641   -0.0231    0.0000 N   0  0  3  0  0  0  0  0  0  0  0  0
    2.8660   -1.5231    0.0000 N   0  0  0  0  0  0  0  0  0  0  0  0
    4.5981    0.4769    0.0000 C   0  0  1  0  0  0  0  0  0  0  0  0
    6.3301    0.4769    0.0000 C   0  0  0  0  0  0  0  0  0  0  0  0
    4.5981    1.4769    0.0000 C   0  0  0  0  0  0  0  0  0  0  0  0
    6.3301    1.4769    0.0000 C   0  0  0  0  0  0  0  0  0  0  0  0
    5.4641    1.9769    0.0000 C   0  0  0  0  0  0  0  0  0  0  0  0
    5.9641   -0.8891    0.0000 C   0  0  0  0  0  0  0  0  0  0  0  0
    3.7320   -0.0231    0.0000 C   0  0  0  0  0  0  0  0  0  0  0  0
    6.9641   -0.8891    0.0000 C   0  0  0  0  0  0  0  0  0  0  0  0
    2.8660    0.4769    0.0000 C   0  0  0  0  0  0  0  0  0  0  0  0
    3.7320   -1.0231    0.0000 C   0  0  0  0  0  0  0  0  0  0  0  0
    7.5519   -0.0801    0.0000 C   0  0  0  0  0  0  0  0  0  0  0  0
    2.0000   -0.0231    0.0000 C   0  0  0  0  0  0  0  0  0  0  0  0
    8.5029   -1.3891    0.0000 C   0  0  0  0  0  0  0  0  0  0  0  0
    8.5029   -0.3891    0.0000 C   0  0  0  0  0  0  0  0  0  0  0  0
    2.0000   -1.0231    0.0000 C   0  0  0  0  0  0  0  0  0  0  0  0
  1 11  1  0  0  0  0 
  1 16  1  0  0  0  0 
  2  4  1  0  0  0  0 
  2  5  1  0  0  0  0 
  2  9  1  0  0  0  0 
  3 13  1  0  0  0  0 
  3 18  1  0  0  0  0 
  4  6  1  0  0  0  0 
  4 10  1  6  0  0  0 
  5  7  1  0  0  0  0 
  6  8  1  0  0  0  0 
  7  8  1  0  0  0  0 
  9 11  1  0  0  0  0 
 10 12  1  0  0  0  0 
 10 13  1  0  0  0  0 
 11 14  1  0  0  0  0 
 12 15  1  0  0  0  0 
 14 17  1  0  0  0  0 
 15 18  1  0  0  0  0 
 16 17  1  0  0  0  0 
M  CHG  1   2   1
M  ISO  1   1  16
M  END
> <cdk:Title>
null

> <cdk:Remark>
null

> <PUBCHEM_COMPOUND_CID>
29955602

> <AMMOLITE_STRUCTURE_ID>
29955602_STRUCT

$$$$
