
  CDK     1217142145

 24 27  0  0  0  0  0  0  0  0999 V2000
    3.0000    3.5352    0.0000 N   0  0  0  0  0  0  0  0  0  0  0  0
    2.5000   -2.0036    0.0000 N   0  0  0  0  0  0  0  0  0  0  0  0
    3.9598   -5.4863    0.0000 N   0  0  0  0  0  0  0  0  0  0  0  0
    3.0000    4.5352    0.0000 N   0  0  0  0  0  0  0  0  0  0  0  0
    3.8090   -1.0526    0.0000 N   0  0  0  0  0  0  0  0  0  0  0  0
    4.0878   -2.8126    0.0000 N   0  0  0  0  0  0  0  0  0  0  0  0
    3.8090    5.1230    0.0000 C   0  0  0  0  0  0  0  0  0  0  0  0
    2.1910    5.1230    0.0000 C   0  0  0  0  0  0  0  0  0  0  0  0
    3.5000    6.0740    0.0000 C   0  0  0  0  0  0  0  0  0  0  0  0
    2.5000    6.0740    0.0000 C   0  0  0  0  0  0  0  0  0  0  0  0
    3.0000    2.5352    0.0000 C   0  0  0  0  0  0  0  0  0  0  0  0
    2.1340    2.0352    0.0000 C   0  0  0  0  0  0  0  0  0  0  0  0
    3.8660    2.0352    0.0000 C   0  0  0  0  0  0  0  0  0  0  0  0
    3.0000    0.5352    0.0000 C   0  0  0  0  0  0  0  0  0  0  0  0
    2.1340    1.0352    0.0000 C   0  0  0  0  0  0  0  0  0  0  0  0
    3.8660    1.0352    0.0000 C   0  0  0  0  0  0  0  0  0  0  0  0
    3.0000   -0.4648    0.0000 C   0  0  0  0  0  0  0  0  0  0  0  0
    2.1910   -1.0526    0.0000 C   0  0  0  0  0  0  0  0  0  0  0  0
    3.5000   -2.0036    0.0000 C   0  0  0  0  0  0  0  0  0  0  0  0
    3.6810   -3.7262    0.0000 C   0  0  0  0  0  0  0  0  0  0  0  0
    4.2688   -4.5352    0.0000 C   0  0  0  0  0  0  0  0  0  0  0  0
    5.2688   -4.5352    0.0000 C   0  0  0  0  0  0  0  0  0  0  0  0
    5.5778   -5.4863    0.0000 C   0  0  0  0  0  0  0  0  0  0  0  0
    4.7688   -6.0740    0.0000 C   0  0  0  0  0  0  0  0  0  0  0  0
  1  4  1  0  0  0  0 
  1 11  1  0  0  0  0 
  2 18  1  0  0  0  0 
  2 19  1  0  0  0  0 
  3 21  1  0  0  0  0 
  3 24  1  0  0  0  0 
  4  7  1  0  0  0  0 
  4  8  1  0  0  0  0 
  5 17  1  0  0  0  0 
  5 19  1  0  0  0  0 
  6 19  1  0  0  0  0 
  6 20  1  0  0  0  0 
  7  9  1  0  0  0  0 
  8 10  1  0  0  0  0 
  9 10  1  0  0  0  0 
 11 12  1  0  0  0  0 
 11 13  1  0  0  0  0 
 12 15  1  0  0  0  0 
 13 16  1  0  0  0  0 
 14 15  1  0  0  0  0 
 14 16  1  0  0  0  0 
 14 17  1  0  0  0  0 
 17 18  1  0  0  0  0 
 20 21  1  0  0  0  0 
 21 22  1  0  0  0  0 
 22 23  1  0  0  0  0 
 23 24  1  0  0  0  0 
M  ISO  1   1  32
M  ISO  1   2  32
M  ISO  1   3  16
M  END
> <cdk:Title>
null

> <cdk:Remark>
null

> <PUBCHEM_COMPOUND_CID>
32951440

> <AMMOLITE_STRUCTURE_ID>
32951440_STRUCT

$$$$
