
  CDK     1217142145

 20 22  0  0  0  0  0  0  0  0999 V2000
    2.8090   -4.0963    0.0000 N   0  0  0  0  0  0  0  0  0  0  0  0
    7.1102   -0.2298    0.0000 N   0  0  0  0  0  0  0  0  0  0  0  0
    5.3781   -3.2298    0.0000 N   0  0  0  0  0  0  0  0  0  0  0  0
    5.8781   -4.7686    0.0000 N   0  0  0  0  0  0  0  0  0  0  0  0
    4.8781   -4.7686    0.0000 N   0  0  0  0  0  0  0  0  0  0  0  0
    7.1102    2.7702    0.0000 C   0  0  0  0  0  0  0  0  0  0  0  0
    7.9762    2.2702    0.0000 C   0  0  0  0  0  0  0  0  0  0  0  0
    6.2441    2.2702    0.0000 C   0  0  0  0  0  0  0  0  0  0  0  0
    7.1102    0.7702    0.0000 C   0  0  0  0  0  0  0  0  0  0  0  0
    7.9762    1.2702    0.0000 C   0  0  0  0  0  0  0  0  0  0  0  0
    6.2441    1.2702    0.0000 C   0  0  0  0  0  0  0  0  0  0  0  0
    6.2441   -0.7298    0.0000 C   0  0  0  0  0  0  0  0  0  0  0  0
    6.2441   -1.7298    0.0000 C   0  0  0  0  0  0  0  0  0  0  0  0
    5.3781   -2.2298    0.0000 C   0  0  0  0  0  0  0  0  0  0  0  0
    4.5691   -3.8176    0.0000 C   0  0  0  0  0  0  0  0  0  0  0  0
    6.1871   -3.8176    0.0000 C   0  0  0  0  0  0  0  0  0  0  0  0
    3.6180   -3.5086    0.0000 C   0  0  0  0  0  0  0  0  0  0  0  0
    3.3090   -2.5575    0.0000 C   0  0  0  0  0  0  0  0  0  0  0  0
    2.3090   -2.5575    0.0000 C   0  0  0  0  0  0  0  0  0  0  0  0
    2.0000   -3.5086    0.0000 C   0  0  0  0  0  0  0  0  0  0  0  0
  1 17  1  0  0  0  0 
  1 20  1  0  0  0  0 
  2  9  1  0  0  0  0 
  2 12  1  0  0  0  0 
  3 14  1  0  0  0  0 
  3 15  1  0  0  0  0 
  3 16  1  0  0  0  0 
  4  5  1  0  0  0  0 
  4 16  1  0  0  0  0 
  5 15  1  0  0  0  0 
  6  7  1  0  0  0  0 
  6  8  1  0  0  0  0 
  7 10  1  0  0  0  0 
  8 11  1  0  0  0  0 
  9 10  1  0  0  0  0 
  9 11  1  0  0  0  0 
 12 13  1  0  0  0  0 
 13 14  1  0  0  0  0 
 15 17  1  0  0  0  0 
 17 18  1  0  0  0  0 
 18 19  1  0  0  0  0 
 19 20  1  0  0  0  0 
M  ISO  1   1  32
M  END
> <cdk:Title>
null

> <cdk:Remark>
null

> <PUBCHEM_COMPOUND_CID>
33295171

> <AMMOLITE_STRUCTURE_ID>
33295171_STRUCT

$$$$
