
  CDK     1217142145

 25 28  0  0  0  0  0  0  0  0999 V2000
    7.2566    1.5050    0.0000 N   0  0  0  0  0  0  0  0  0  0  0  0
    9.2878    1.9914    0.0000 N   0  0  0  0  0  0  0  0  0  0  0  0
    4.6783   -0.8084    0.0000 N   0  0  0  0  0  0  0  0  0  0  0  0
    4.6783   -2.4179    0.0000 N   0  0  0  0  0  0  0  0  0  0  0  0
    8.9541    3.5746    0.0000 N   0  0  0  0  0  0  0  0  0  0  0  0
    9.9484    3.4684    0.0000 N   0  0  0  0  0  0  0  0  0  0  0  0
    3.7320   -1.1132    0.0000 C   0  0  0  0  0  0  0  0  0  0  0  0
    3.7320   -2.1132    0.0000 C   0  0  0  0  0  0  0  0  0  0  0  0
    4.9889    0.1421    0.0000 C   0  0  0  0  0  0  0  0  0  0  0  0
    5.2619   -1.6132    0.0000 C   0  0  0  0  0  0  0  0  0  0  0  0
    5.9674    0.3483    0.0000 C   0  0  0  0  0  0  0  0  0  0  0  0
    2.8660   -0.6132    0.0000 C   0  0  0  0  0  0  0  0  0  0  0  0
    2.8660   -2.6132    0.0000 C   0  0  0  0  0  0  0  0  0  0  0  0
    2.0000   -1.1132    0.0000 C   0  0  0  0  0  0  0  0  0  0  0  0
    2.0000   -2.1132    0.0000 C   0  0  0  0  0  0  0  0  0  0  0  0
    6.2781    1.2988    0.0000 C   0  0  0  0  0  0  0  0  0  0  0  0
    7.5673    2.4556    0.0000 C   0  0  2  0  0  0  0  0  0  0  0  0
    8.5458    2.6618    0.0000 C   0  0  0  0  0  0  0  0  0  0  0  0
   10.1547    2.4899    0.0000 C   0  0  0  0  0  0  0  0  0  0  0  0
   11.0675    2.0816    0.0000 C   0  0  0  0  0  0  0  0  0  0  0  0
   11.1703    1.0869    0.0000 C   0  0  0  0  0  0  0  0  0  0  0  0
   11.8775    2.6679    0.0000 C   0  0  0  0  0  0  0  0  0  0  0  0
   12.0831    0.6785    0.0000 C   0  0  0  0  0  0  0  0  0  0  0  0
   12.7904    2.2596    0.0000 C   0  0  0  0  0  0  0  0  0  0  0  0
   12.8932    1.2649    0.0000 C   0  0  0  0  0  0  0  0  0  0  0  0
  1 16  1  0  0  0  0 
 17  1  1  1  0  0  0 
  2 18  1  0  0  0  0 
  2 19  1  0  0  0  0 
  3  7  1  0  0  0  0 
  3  9  1  0  0  0  0 
  3 10  1  0  0  0  0 
  4  8  1  0  0  0  0 
  4 10  1  0  0  0  0 
  5  6  1  0  0  0  0 
  5 18  1  0  0  0  0 
  6 19  1  0  0  0  0 
  7  8  1  0  0  0  0 
  7 12  1  0  0  0  0 
  8 13  1  0  0  0  0 
  9 11  1  0  0  0  0 
 11 16  1  0  0  0  0 
 12 14  1  0  0  0  0 
 13 15  1  0  0  0  0 
 14 15  1  0  0  0  0 
 17 18  1  0  0  0  0 
 19 20  1  0  0  0  0 
 20 21  1  0  0  0  0 
 20 22  1  0  0  0  0 
 21 23  1  0  0  0  0 
 22 24  1  0  0  0  0 
 23 25  1  0  0  0  0 
 24 25  1  0  0  0  0 
M  ISO  1   1  16
M  ISO  1   2  16
M  END
> <cdk:Title>
null

> <cdk:Remark>
null

> <PUBCHEM_COMPOUND_CID>
33536116

> <AMMOLITE_STRUCTURE_ID>
33536116_STRUCT

$$$$
