
  CDK     1217142145

 18 20  0  0  0  0  0  0  0  0999 V2000
    4.6783   -1.2592    0.0000 N   0  0  0  0  0  0  0  0  0  0  0  0
    8.2619   -2.1866    0.0000 N   0  0  0  0  0  0  0  0  0  0  0  0
    9.8497   -1.3775    0.0000 N   0  0  0  0  0  0  0  0  0  0  0  0
    6.2619   -0.4545    0.0000 N   0  0  0  0  0  0  0  0  0  0  0  0
   10.8007   -2.6866    0.0000 N   0  0  0  0  0  0  0  0  0  0  0  0
    9.8497   -2.9956    0.0000 N   0  0  0  0  0  0  0  0  0  0  0  0
    2.0000    0.0455    0.0000 C   0  0  0  0  0  0  0  0  0  0  0  0
    2.8660    0.5455    0.0000 C   0  0  0  0  0  0  0  0  0  0  0  0
    2.0000   -0.9545    0.0000 C   0  0  0  0  0  0  0  0  0  0  0  0
    3.7320    0.0455    0.0000 C   0  0  0  0  0  0  0  0  0  0  0  0
    2.8660   -1.4545    0.0000 C   0  0  0  0  0  0  0  0  0  0  0  0
    3.7320   -0.9545    0.0000 C   0  0  0  0  0  0  0  0  0  0  0  0
    4.6783    0.3502    0.0000 C   0  0  0  0  0  0  0  0  0  0  0  0
    5.2619   -0.4545    0.0000 C   0  0  0  0  0  0  0  0  0  0  0  0
    6.7619   -1.3205    0.0000 C   0  0  0  0  0  0  0  0  0  0  0  0
    7.7619   -1.3205    0.0000 C   0  0  0  0  0  0  0  0  0  0  0  0
    9.2619   -2.1866    0.0000 C   0  0  0  0  0  0  0  0  0  0  0  0
   10.8007   -1.6866    0.0000 C   0  0  0  0  0  0  0  0  0  0  0  0
  1 12  1  0  0  0  0 
  1 14  1  0  0  0  0 
  2 16  1  0  0  0  0 
  2 17  1  0  0  0  0 
  3 17  1  0  0  0  0 
  3 18  1  0  0  0  0 
  4 14  1  0  0  0  0 
  4 15  1  0  0  0  0 
  5  6  1  0  0  0  0 
  5 18  1  0  0  0  0 
  6 17  1  0  0  0  0 
  7  8  1  0  0  0  0 
  7  9  1  0  0  0  0 
  8 10  1  0  0  0  0 
  9 11  1  0  0  0  0 
 10 12  1  0  0  0  0 
 10 13  1  0  0  0  0 
 11 12  1  0  0  0  0 
 13 14  1  0  0  0  0 
 15 16  1  0  0  0  0 
M  ISO  1   1  32
M  ISO  1   2  32
M  ISO  1   3  32
M  END
> <cdk:Title>
null

> <cdk:Remark>
null

> <PUBCHEM_COMPOUND_CID>
33889401

> <AMMOLITE_STRUCTURE_ID>
33889401_STRUCT

$$$$
