
  CDK     1217142145

 30 33  0  0  0  0  0  0  0  0999 V2000
    8.7788    2.6809    0.0000 N   0  0  0  0  0  0  0  0  0  0  0  0
    8.2788    3.5470    0.0000 N   0  0  0  0  0  0  0  0  0  0  0  0
    6.3301    0.8445    0.0000 N   0  0  0  0  0  0  0  0  0  0  0  0
    5.4641    0.3445    0.0000 N   0  0  0  0  0  0  0  0  0  0  0  0
    4.5981   -2.1555    0.0000 N   0  0  0  0  0  0  0  0  0  0  0  0
    7.3007    3.3391    0.0000 C   0  0  0  0  0  0  0  0  0  0  0  0
    7.1962    2.3445    0.0000 C   0  0  0  0  0  0  0  0  0  0  0  0
    8.1097    1.9378    0.0000 C   0  0  0  0  0  0  0  0  0  0  0  0
    6.5575    4.0082    0.0000 C   0  0  0  0  0  0  0  0  0  0  0  0
    9.7734    2.5764    0.0000 C   0  0  0  0  0  0  0  0  0  0  0  0
    6.3301    1.8445    0.0000 C   0  0  0  0  0  0  0  0  0  0  0  0
    6.7654    4.9863    0.0000 C   0  0  0  0  0  0  0  0  0  0  0  0
    5.6065    3.6992    0.0000 C   0  0  0  0  0  0  0  0  0  0  0  0
   10.1801    1.6629    0.0000 C   0  0  0  0  0  0  0  0  0  0  0  0
   10.3611    3.3854    0.0000 C   0  0  0  0  0  0  0  0  0  0  0  0
    6.0223    5.6555    0.0000 C   0  0  0  0  0  0  0  0  0  0  0  0
    4.8633    4.3683    0.0000 C   0  0  0  0  0  0  0  0  0  0  0  0
   11.1746    1.5583    0.0000 C   0  0  0  0  0  0  0  0  0  0  0  0
   11.3557    3.2809    0.0000 C   0  0  0  0  0  0  0  0  0  0  0  0
    5.0712    5.3464    0.0000 C   0  0  0  0  0  0  0  0  0  0  0  0
   11.7624    2.3674    0.0000 C   0  0  0  0  0  0  0  0  0  0  0  0
    4.5981   -1.1555    0.0000 C   0  0  0  0  0  0  0  0  0  0  0  0
    5.4641   -0.6555    0.0000 C   0  0  0  0  0  0  0  0  0  0  0  0
    3.7320   -3.6555    0.0000 C   0  0  0  0  0  0  0  0  0  0  0  0
    3.7320   -2.6555    0.0000 C   0  0  0  0  0  0  0  0  0  0  0  0
    2.8660   -4.1555    0.0000 C   0  0  0  0  0  0  0  0  0  0  0  0
    4.5981   -4.1555    0.0000 C   0  0  0  0  0  0  0  0  0  0  0  0
    2.8660   -5.1555    0.0000 C   0  0  0  0  0  0  0  0  0  0  0  0
    4.5981   -5.1555    0.0000 C   0  0  0  0  0  0  0  0  0  0  0  0
    3.7320   -5.6555    0.0000 C   0  0  0  0  0  0  0  0  0  0  0  0
  1  2  1  0  0  0  0 
  1  8  1  0  0  0  0 
  1 10  1  0  0  0  0 
  2  6  1  0  0  0  0 
  3  4  1  0  0  0  0 
  3 11  1  0  0  0  0 
  4 23  1  0  0  0  0 
  5 22  1  0  0  0  0 
  5 25  1  0  0  0  0 
  6  7  1  0  0  0  0 
  6  9  1  0  0  0  0 
  7  8  1  0  0  0  0 
  7 11  1  0  0  0  0 
  9 12  1  0  0  0  0 
  9 13  1  0  0  0  0 
 10 14  1  0  0  0  0 
 10 15  1  0  0  0  0 
 12 16  1  0  0  0  0 
 13 17  1  0  0  0  0 
 14 18  1  0  0  0  0 
 15 19  1  0  0  0  0 
 16 20  1  0  0  0  0 
 17 20  1  0  0  0  0 
 18 21  1  0  0  0  0 
 19 21  1  0  0  0  0 
 22 23  1  0  0  0  0 
 24 25  1  0  0  0  0 
 24 26  1  0  0  0  0 
 24 27  1  0  0  0  0 
 26 28  1  0  0  0  0 
 27 29  1  0  0  0  0 
 28 30  1  0  0  0  0 
 29 30  1  0  0  0  0 
M  END
> <cdk:Title>
null

> <cdk:Remark>
null

> <PUBCHEM_COMPOUND_CID>
34299360

> <AMMOLITE_STRUCTURE_ID>
34299360_STRUCT

$$$$
