
  CDK     1217142145

 17 19  0  0  0  0  0  0  0  0999 V2000
    9.3292    0.8082    0.0000 N   0  0  0  0  0  0  0  0  0  0  0  0
    9.6382   -0.1429    0.0000 N   0  0  0  0  0  0  0  0  0  0  0  0
    8.3292    0.8082    0.0000 C   0  0  0  0  0  0  0  0  0  0  0  0
    8.0202   -0.1429    0.0000 C   0  0  0  0  0  0  0  0  0  0  0  0
    8.8292   -0.7307    0.0000 C   0  0  0  0  0  0  0  0  0  0  0  0
    9.9170    1.6172    0.0000 C   0  0  0  0  0  0  0  0  0  0  0  0
    8.8292   -1.7307    0.0000 C   0  0  0  0  0  0  0  0  0  0  0  0
   10.9115    1.5127    0.0000 C   0  0  0  0  0  0  0  0  0  0  0  0
    9.5103    2.5307    0.0000 C   0  0  0  0  0  0  0  0  0  0  0  0
    7.9632   -2.2307    0.0000 C   0  0  0  0  0  0  0  0  0  0  0  0
    9.6952   -2.2307    0.0000 C   0  0  0  0  0  0  0  0  0  0  0  0
   11.4993    2.3217    0.0000 C   0  0  0  0  0  0  0  0  0  0  0  0
   10.0981    3.3398    0.0000 C   0  0  0  0  0  0  0  0  0  0  0  0
    7.9632   -3.2307    0.0000 C   0  0  0  0  0  0  0  0  0  0  0  0
    9.6952   -3.2307    0.0000 C   0  0  0  0  0  0  0  0  0  0  0  0
   11.0926    3.2352    0.0000 C   0  0  0  0  0  0  0  0  0  0  0  0
    8.8292   -3.7307    0.0000 C   0  0  0  0  0  0  0  0  0  0  0  0
  1  2  1  0  0  0  0 
  1  3  1  0  0  0  0 
  1  6  1  0  0  0  0 
  2  5  1  0  0  0  0 
  3  4  1  0  0  0  0 
  4  5  1  0  0  0  0 
  5  7  1  0  0  0  0 
  6  8  1  0  0  0  0 
  6  9  1  0  0  0  0 
  7 10  1  0  0  0  0 
  7 11  1  0  0  0  0 
  8 12  1  0  0  0  0 
  9 13  1  0  0  0  0 
 10 14  1  0  0  0  0 
 11 15  1  0  0  0  0 
 12 16  1  0  0  0  0 
 13 16  1  0  0  0  0 
 14 17  1  0  0  0  0 
 15 17  1  0  0  0  0 
M  END
> <cdk:Title>
null

> <cdk:Remark>
null

> <PUBCHEM_COMPOUND_CID>
3437967

> <AMMOLITE_STRUCTURE_ID>
3437967_STRUCT

$$$$
