
  CDK     1217142145

 20 22  0  0  0  0  0  0  0  0999 V2000
    3.7321   -2.8170    0.0000 N   0  0  0  0  0  0  0  0  0  0  0  0
    4.5981    1.6830    0.0000 N   0  0  0  0  0  0  0  0  0  0  0  0
    2.8660   -4.3170    0.0000 C   0  0  0  0  0  0  0  0  0  0  0  0
    2.3660   -5.1830    0.0000 C   0  0  0  0  0  0  0  0  0  0  0  0
    3.3660   -5.1830    0.0000 C   0  0  0  0  0  0  0  0  0  0  0  0
    2.8660   -3.3170    0.0000 C   0  0  0  0  0  0  0  0  0  0  0  0
    3.7321    1.1830    0.0000 C   0  0  2  0  0  0  0  0  0  0  0  0
    3.7321    0.1830    0.0000 C   0  0  0  0  0  0  0  0  0  0  0  0
    3.7321   -1.8170    0.0000 C   0  0  0  0  0  0  0  0  0  0  0  0
    5.4641    2.1830    0.0000 C   0  0  0  0  0  0  0  0  0  0  0  0
    4.5981   -0.3170    0.0000 C   0  0  0  0  0  0  0  0  0  0  0  0
    2.8660   -0.3170    0.0000 C   0  0  0  0  0  0  0  0  0  0  0  0
    4.5981   -1.3170    0.0000 C   0  0  0  0  0  0  0  0  0  0  0  0
    2.8660   -1.3170    0.0000 C   0  0  0  0  0  0  0  0  0  0  0  0
    5.4641    3.1830    0.0000 C   0  0  0  0  0  0  0  0  0  0  0  0
    6.3301    3.6830    0.0000 C   0  0  0  0  0  0  0  0  0  0  0  0
    4.5981    3.6830    0.0000 C   0  0  0  0  0  0  0  0  0  0  0  0
    6.3301    4.6830    0.0000 C   0  0  0  0  0  0  0  0  0  0  0  0
    4.5981    4.6830    0.0000 C   0  0  0  0  0  0  0  0  0  0  0  0
    5.4641    5.1830    0.0000 C   0  0  0  0  0  0  0  0  0  0  0  0
  1  6  1  0  0  0  0 
  1  9  1  0  0  0  0 
  7  2  1  6  0  0  0 
  2 10  1  0  0  0  0 
  3  4  1  0  0  0  0 
  3  5  1  0  0  0  0 
  3  6  1  0  0  0  0 
  4  5  1  0  0  0  0 
  7  8  1  0  0  0  0 
  8 11  1  0  0  0  0 
  8 12  1  0  0  0  0 
  9 13  1  0  0  0  0 
  9 14  1  0  0  0  0 
 10 15  1  0  0  0  0 
 11 13  1  0  0  0  0 
 12 14  1  0  0  0  0 
 15 16  1  0  0  0  0 
 15 17  1  0  0  0  0 
 16 18  1  0  0  0  0 
 17 19  1  0  0  0  0 
 18 20  1  0  0  0  0 
 19 20  1  0  0  0  0 
M  CHG  1   2   1
M  END
> <cdk:Title>
null

> <cdk:Remark>
null

> <PUBCHEM_COMPOUND_CID>
36089241

> <AMMOLITE_STRUCTURE_ID>
36089241_STRUCT

$$$$
