
  CDK     1217142145

 24 27  0  0  0  0  0  0  0  0999 V2000
    9.5755    0.9592    0.0000 N   0  0  0  0  0  0  0  0  0  0  0  0
   13.9047    1.5470    0.0000 N   0  0  0  0  0  0  0  0  0  0  0  0
    2.8090    1.4007    0.0000 N   0  0  0  0  0  0  0  0  0  0  0  0
    5.8781    0.7284    0.0000 N   0  0  0  0  0  0  0  0  0  0  0  0
   11.3356    0.6805    0.0000 N   0  0  0  0  0  0  0  0  0  0  0  0
   10.8356    2.2193    0.0000 N   0  0  0  0  0  0  0  0  0  0  0  0
   11.8356    2.2193    0.0000 N   0  0  0  0  0  0  0  0  0  0  0  0
    5.3781    2.2673    0.0000 N   0  0  0  0  0  0  0  0  0  0  0  0
    4.8781    0.7284    0.0000 N   0  0  0  0  0  0  0  0  0  0  0  0
    7.8813    1.3194    0.0000 C   0  0  0  0  0  0  0  0  0  0  0  0
    8.8324    1.6284    0.0000 C   0  0  0  0  0  0  0  0  0  0  0  0
   10.5266    1.2683    0.0000 C   0  0  0  0  0  0  0  0  0  0  0  0
   12.1446    1.2683    0.0000 C   0  0  0  0  0  0  0  0  0  0  0  0
    7.1382    1.9885    0.0000 C   0  0  0  0  0  0  0  0  0  0  0  0
   13.0957    0.9592    0.0000 C   0  0  0  0  0  0  0  0  0  0  0  0
    6.1871    1.6795    0.0000 C   0  0  0  0  0  0  0  0  0  0  0  0
   13.4047    0.0082    0.0000 C   0  0  0  0  0  0  0  0  0  0  0  0
    4.5691    1.6795    0.0000 C   0  0  0  0  0  0  0  0  0  0  0  0
   14.4047    0.0082    0.0000 C   0  0  0  0  0  0  0  0  0  0  0  0
   14.7137    0.9592    0.0000 C   0  0  0  0  0  0  0  0  0  0  0  0
    3.6180    1.9885    0.0000 C   0  0  0  0  0  0  0  0  0  0  0  0
    3.3090    2.9395    0.0000 C   0  0  0  0  0  0  0  0  0  0  0  0
    2.3090    2.9395    0.0000 C   0  0  0  0  0  0  0  0  0  0  0  0
    2.0000    1.9885    0.0000 C   0  0  0  0  0  0  0  0  0  0  0  0
  1 11  1  0  0  0  0 
  1 12  1  0  0  0  0 
  2 15  1  0  0  0  0 
  2 20  1  0  0  0  0 
  3 21  1  0  0  0  0 
  3 24  1  0  0  0  0 
  4  9  1  0  0  0  0 
  4 16  1  0  0  0  0 
  5 12  1  0  0  0  0 
  5 13  1  0  0  0  0 
  6  7  1  0  0  0  0 
  6 12  1  0  0  0  0 
  7 13  1  0  0  0  0 
  8 16  1  0  0  0  0 
  8 18  1  0  0  0  0 
  9 18  1  0  0  0  0 
 10 11  1  0  0  0  0 
 10 14  1  0  0  0  0 
 13 15  1  0  0  0  0 
 14 16  1  0  0  0  0 
 15 17  1  0  0  0  0 
 17 19  1  0  0  0  0 
 18 21  1  0  0  0  0 
 19 20  1  0  0  0  0 
 21 22  1  0  0  0  0 
 22 23  1  0  0  0  0 
 23 24  1  0  0  0  0 
M  ISO  1   1  32
M  ISO  1   2  32
M  ISO  1   3  32
M  ISO  1   4  16
M  END
> <cdk:Title>
null

> <cdk:Remark>
null

> <PUBCHEM_COMPOUND_CID>
36118920

> <AMMOLITE_STRUCTURE_ID>
36118920_STRUCT

$$$$
