
  CDK     1217142145

 26 29  0  0  0  0  0  0  0  0999 V2000
    3.4782   -1.2730    0.0000 N   0  0  0  0  0  0  0  0  0  0  0  0
    7.2634   -2.9809    0.0000 N   0  0  0  0  0  0  0  0  0  0  0  0
    5.3147   -0.2785    0.0000 N   0  0  0  0  0  0  0  0  0  0  0  0
    6.1808   -1.7785    0.0000 C   0  0  2  0  0  0  0  0  0  0  0  0
    6.2853   -2.7730    0.0000 C   0  0  0  0  0  0  0  0  0  0  0  0
    7.0943   -1.3717    0.0000 C   0  0  0  0  0  0  0  0  0  0  0  0
    7.7634   -2.1149    0.0000 C   0  0  0  0  0  0  0  0  0  0  0  0
    5.3147   -1.2785    0.0000 C   0  0  0  0  0  0  0  0  0  0  0  0
    7.6702   -3.8944    0.0000 C   0  0  0  0  0  0  0  0  0  0  0  0
    6.1808    0.2215    0.0000 C   0  0  0  0  0  0  0  0  0  0  0  0
    4.4487    0.2215    0.0000 C   0  0  0  0  0  0  0  0  0  0  0  0
    6.1808    1.2215    0.0000 C   0  0  0  0  0  0  0  0  0  0  0  0
    7.0824   -4.7035    0.0000 C   0  0  0  0  0  0  0  0  0  0  0  0
    8.6647   -3.9990    0.0000 C   0  0  0  0  0  0  0  0  0  0  0  0
    3.5827   -0.2785    0.0000 C   0  0  0  0  0  0  0  0  0  0  0  0
    7.4891   -5.6170    0.0000 C   0  0  0  0  0  0  0  0  0  0  0  0
    9.0714   -4.9125    0.0000 C   0  0  0  0  0  0  0  0  0  0  0  0
    7.0468    1.7215    0.0000 C   0  0  0  0  0  0  0  0  0  0  0  0
    5.3147    1.7215    0.0000 C   0  0  0  0  0  0  0  0  0  0  0  0
    2.6691    0.1283    0.0000 C   0  0  0  0  0  0  0  0  0  0  0  0
    8.4836   -5.7215    0.0000 C   0  0  0  0  0  0  0  0  0  0  0  0
    7.0468    2.7215    0.0000 C   0  0  0  0  0  0  0  0  0  0  0  0
    5.3147    2.7215    0.0000 C   0  0  0  0  0  0  0  0  0  0  0  0
    6.1808    3.2215    0.0000 C   0  0  0  0  0  0  0  0  0  0  0  0
    2.0000   -0.6149    0.0000 C   0  0  0  0  0  0  0  0  0  0  0  0
    2.5000   -1.4809    0.0000 C   0  0  0  0  0  0  0  0  0  0  0  0
  1 15  1  0  0  0  0 
  1 26  1  0  0  0  0 
  2  5  1  0  0  0  0 
  2  7  1  0  0  0  0 
  2  9  1  0  0  0  0 
  3  8  1  0  0  0  0 
  3 10  1  0  0  0  0 
  3 11  1  0  0  0  0 
  4  5  1  0  0  0  0 
  4  6  1  0  0  0  0 
  4  8  1  1  0  0  0 
  6  7  1  0  0  0  0 
  9 13  1  0  0  0  0 
  9 14  1  0  0  0  0 
 10 12  1  0  0  0  0 
 11 15  1  0  0  0  0 
 12 18  1  0  0  0  0 
 12 19  1  0  0  0  0 
 13 16  1  0  0  0  0 
 14 17  1  0  0  0  0 
 15 20  1  0  0  0  0 
 16 21  1  0  0  0  0 
 17 21  1  0  0  0  0 
 18 22  1  0  0  0  0 
 19 23  1  0  0  0  0 
 20 25  1  0  0  0  0 
 22 24  1  0  0  0  0 
 23 24  1  0  0  0  0 
 25 26  1  0  0  0  0 
M  ISO  1   1  16
M  END
> <cdk:Title>
null

> <cdk:Remark>
null

> <PUBCHEM_COMPOUND_CID>
37434090

> <AMMOLITE_STRUCTURE_ID>
37434090_STRUCT

$$$$
