
  CDK     1217142145

 18 20  0  0  0  0  0  0  0  0999 V2000
    3.4013    2.1235    0.0000 N   0  0  0  0  0  0  0  0  0  0  0  0
    4.0823   -1.1380    0.0000 N   0  0  0  0  0  0  0  0  0  0  0  0
    3.2202    3.8460    0.0000 C   0  0  0  0  0  0  0  0  0  0  0  0
    4.1538    4.2044    0.0000 C   0  0  0  0  0  0  0  0  0  0  0  0
    2.8618    4.7796    0.0000 C   0  0  0  0  0  0  0  0  0  0  0  0
    3.7954    5.1380    0.0000 C   0  0  0  0  0  0  0  0  0  0  0  0
    2.8135    2.9325    0.0000 C   0  0  0  0  0  0  0  0  0  0  0  0
    3.5823    0.4009    0.0000 C   0  0  2  0  0  0  0  0  0  0  0  0
    3.2733   -0.5502    0.0000 C   0  0  0  0  0  0  0  0  0  0  0  0
    4.5823    0.4009    0.0000 C   0  0  0  0  0  0  0  0  0  0  0  0
    2.9945    1.2099    0.0000 C   0  0  0  0  0  0  0  0  0  0  0  0
    4.8913   -0.5502    0.0000 C   0  0  0  0  0  0  0  0  0  0  0  0
    4.0823   -2.1380    0.0000 C   0  0  0  0  0  0  0  0  0  0  0  0
    3.2163   -2.6380    0.0000 C   0  0  0  0  0  0  0  0  0  0  0  0
    4.9483   -2.6380    0.0000 C   0  0  0  0  0  0  0  0  0  0  0  0
    3.2163   -3.6380    0.0000 C   0  0  0  0  0  0  0  0  0  0  0  0
    4.9483   -3.6380    0.0000 C   0  0  0  0  0  0  0  0  0  0  0  0
    4.0823   -4.1380    0.0000 C   0  0  0  0  0  0  0  0  0  0  0  0
  1  7  1  0  0  0  0 
  1 11  1  0  0  0  0 
  2  9  1  0  0  0  0 
  2 12  1  0  0  0  0 
  2 13  1  0  0  0  0 
  3  4  1  0  0  0  0 
  3  5  1  0  0  0  0 
  3  7  1  0  0  0  0 
  4  6  1  0  0  0  0 
  5  6  1  0  0  0  0 
  8  9  1  0  0  0  0 
  8 10  1  0  0  0  0 
  8 11  1  1  0  0  0 
 10 12  1  0  0  0  0 
 13 14  1  0  0  0  0 
 13 15  1  0  0  0  0 
 14 16  1  0  0  0  0 
 15 17  1  0  0  0  0 
 16 18  1  0  0  0  0 
 17 18  1  0  0  0  0 
M  END
> <cdk:Title>
null

> <cdk:Remark>
null

> <PUBCHEM_COMPOUND_CID>
38653339

> <AMMOLITE_STRUCTURE_ID>
38653339_STRUCT

$$$$
