
  CDK     1217142145

 21 23  0  0  0  0  0  0  0  0999 V2000
    5.0268    2.0374    0.0000 N   0  0  0  0  0  0  0  0  0  0  0  0
    6.3301   -0.1780    0.0000 N   0  0  0  0  0  0  0  0  0  0  0  0
    4.9920    3.0368    0.0000 N   0  0  0  0  0  0  0  0  0  0  0  0
    5.4641   -0.6780    0.0000 C   0  0  2  0  0  0  0  0  0  0  0  0
    5.4641   -1.6780    0.0000 C   0  0  0  0  0  0  0  0  0  0  0  0
    7.1962   -0.6780    0.0000 C   0  0  0  0  0  0  0  0  0  0  0  0
    6.3301    0.8220    0.0000 C   0  0  0  0  0  0  0  0  0  0  0  0
    8.0622   -0.1780    0.0000 C   0  0  0  0  0  0  0  0  0  0  0  0
    4.5981   -2.1780    0.0000 C   0  0  0  0  0  0  0  0  0  0  0  0
    6.3301   -2.1780    0.0000 C   0  0  0  0  0  0  0  0  0  0  0  0
    5.9881    1.7617    0.0000 C   0  0  0  0  0  0  0  0  0  0  0  0
    4.5981   -3.1780    0.0000 C   0  0  0  0  0  0  0  0  0  0  0  0
    6.3301   -3.1780    0.0000 C   0  0  0  0  0  0  0  0  0  0  0  0
    8.0622    0.8220    0.0000 C   0  0  0  0  0  0  0  0  0  0  0  0
    8.9282   -0.6780    0.0000 C   0  0  0  0  0  0  0  0  0  0  0  0
    5.4641   -3.6780    0.0000 C   0  0  0  0  0  0  0  0  0  0  0  0
    6.5473    2.5908    0.0000 C   0  0  0  0  0  0  0  0  0  0  0  0
    8.9282    1.3220    0.0000 C   0  0  0  0  0  0  0  0  0  0  0  0
    9.7942   -0.1780    0.0000 C   0  0  0  0  0  0  0  0  0  0  0  0
    9.7942    0.8220    0.0000 C   0  0  0  0  0  0  0  0  0  0  0  0
    5.9316    3.3788    0.0000 C   0  0  0  0  0  0  0  0  0  0  0  0
  1  3  1  0  0  0  0 
  1 11  1  0  0  0  0 
  4  2  1  1  0  0  0 
  2  6  1  0  0  0  0 
  2  7  1  0  0  0  0 
  3 21  1  0  0  0  0 
  4  5  1  0  0  0  0 
  5  9  1  0  0  0  0 
  5 10  1  0  0  0  0 
  6  8  1  0  0  0  0 
  7 11  1  0  0  0  0 
  8 14  1  0  0  0  0 
  8 15  1  0  0  0  0 
  9 12  1  0  0  0  0 
 10 13  1  0  0  0  0 
 11 17  1  0  0  0  0 
 12 16  1  0  0  0  0 
 13 16  1  0  0  0  0 
 14 18  1  0  0  0  0 
 15 19  1  0  0  0  0 
 17 21  1  0  0  0  0 
 18 20  1  0  0  0  0 
 19 20  1  0  0  0  0 
M  ISO  1   1  32
M  END
> <cdk:Title>
null

> <cdk:Remark>
null

> <PUBCHEM_COMPOUND_CID>
40581200

> <AMMOLITE_STRUCTURE_ID>
40581200_STRUCT

$$$$
