
  CDK     1217142145

 30 34  0  0  0  0  0  0  0  0999 V2000
   13.3743   -2.9941    0.0000 N   0  0  0  0  0  0  0  0  0  0  0  0
   13.3743   -0.9248    0.0000 N   0  0  0  0  0  0  0  0  0  0  0  0
    8.7233   -1.6723    0.0000 N   0  0  0  0  0  0  0  0  0  0  0  0
    4.5032    1.5201    0.0000 N   0  0  0  0  0  0  0  0  0  0  0  0
    5.1724    2.2632    0.0000 N   0  0  0  0  0  0  0  0  0  0  0  0
    9.8822   -2.9594    0.0000 C   0  0  0  0  0  0  0  0  0  0  0  0
    8.9041   -3.1674    0.0000 C   0  0  0  0  0  0  0  0  0  0  0  0
   10.3822   -3.8255    0.0000 C   0  0  0  0  0  0  0  0  0  0  0  0
    8.7996   -4.1619    0.0000 C   0  0  0  0  0  0  0  0  0  0  0  0
    9.7131   -4.5686    0.0000 C   0  0  0  0  0  0  0  0  0  0  0  0
    9.6743   -1.9813    0.0000 C   0  0  0  0  0  0  0  0  0  0  0  0
   10.7483   -2.4594    0.0000 C   0  0  0  0  0  0  0  0  0  0  0  0
   11.6143   -2.9594    0.0000 C   0  0  0  0  0  0  0  0  0  0  0  0
   10.7483   -1.4594    0.0000 C   0  0  0  0  0  0  0  0  0  0  0  0
   12.4803   -2.4594    0.0000 C   0  0  0  0  0  0  0  0  0  0  0  0
   11.6143   -0.9594    0.0000 C   0  0  0  0  0  0  0  0  0  0  0  0
   12.4803   -1.4594    0.0000 C   0  0  0  0  0  0  0  0  0  0  0  0
    8.5154   -0.6941    0.0000 C   0  0  0  0  0  0  0  0  0  0  0  0
    7.5643   -0.3851    0.0000 C   0  0  0  0  0  0  0  0  0  0  0  0
   14.2803   -2.4803    0.0000 C   0  0  0  0  0  0  0  0  0  0  0  0
   14.2803   -1.4386    0.0000 C   0  0  0  0  0  0  0  0  0  0  0  0
    7.3564    0.5930    0.0000 C   0  0  0  0  0  0  0  0  0  0  0  0
    6.8212   -1.0542    0.0000 C   0  0  0  0  0  0  0  0  0  0  0  0
    5.6622    0.2329    0.0000 C   0  0  0  0  0  0  0  0  0  0  0  0
    6.4053    0.9020    0.0000 C   0  0  0  0  0  0  0  0  0  0  0  0
    5.8701   -0.7452    0.0000 C   0  0  0  0  0  0  0  0  0  0  0  0
    4.7111    0.5419    0.0000 C   0  0  0  0  0  0  0  0  0  0  0  0
    3.5897    1.9268    0.0000 C   0  0  0  0  0  0  0  0  0  0  0  0
    3.6942    2.9213    0.0000 C   0  0  0  0  0  0  0  0  0  0  0  0
    4.6724    3.1292    0.0000 C   0  0  0  0  0  0  0  0  0  0  0  0
  1 15  1  0  0  0  0 
  1 20  1  0  0  0  0 
  2 17  1  0  0  0  0 
  2 21  1  0  0  0  0 
  3 11  1  0  0  0  0 
  3 18  1  0  0  0  0 
  4  5  1  0  0  0  0 
  4 27  1  0  0  0  0 
  4 28  1  0  0  0  0 
  5 30  1  0  0  0  0 
  6  7  1  0  0  0  0 
  6  8  1  0  0  0  0 
  6 11  1  0  0  0  0 
  6 12  1  0  0  0  0 
  7  9  1  0  0  0  0 
  8 10  1  0  0  0  0 
  9 10  1  0  0  0  0 
 12 13  1  0  0  0  0 
 12 14  1  0  0  0  0 
 13 15  1  0  0  0  0 
 14 16  1  0  0  0  0 
 15 17  1  0  0  0  0 
 16 17  1  0  0  0  0 
 18 19  1  0  0  0  0 
 19 22  1  0  0  0  0 
 19 23  1  0  0  0  0 
 20 21  1  0  0  0  0 
 22 25  1  0  0  0  0 
 23 26  1  0  0  0  0 
 24 25  1  0  0  0  0 
 24 26  1  0  0  0  0 
 24 27  1  0  0  0  0 
 28 29  1  0  0  0  0 
 29 30  1  0  0  0  0 
M  ISO  1   1  16
M  ISO  1   2  16
M  END
> <cdk:Title>
null

> <cdk:Remark>
null

> <PUBCHEM_COMPOUND_CID>
41655718

> <AMMOLITE_STRUCTURE_ID>
41655718_STRUCT

$$$$
