
  CDK     1217142145

 16 18  0  0  0  0  0  0  0  0999 V2000
    7.7619   -0.6276    0.0000 N   0  0  3  0  0  0  0  0  0  0  0  0
    5.2619    0.2384    0.0000 N   0  0  0  0  0  0  0  0  0  0  0  0
    3.7320    0.7384    0.0000 N   0  0  0  0  0  0  0  0  0  0  0  0
    4.6783   -0.5663    0.0000 N   0  0  0  0  0  0  0  0  0  0  0  0
    9.2619   -1.4936    0.0000 C   0  0  0  0  0  0  0  0  0  0  0  0
   10.1279   -1.9936    0.0000 C   0  0  0  0  0  0  0  0  0  0  0  0
   10.1279   -0.9937    0.0000 C   0  0  0  0  0  0  0  0  0  0  0  0
    8.2619   -1.4936    0.0000 C   0  0  0  0  0  0  0  0  0  0  0  0
    6.7619   -0.6276    0.0000 C   0  0  0  0  0  0  0  0  0  0  0  0
    6.2619    0.2384    0.0000 C   0  0  0  0  0  0  0  0  0  0  0  0
    4.6783    1.0431    0.0000 C   0  0  0  0  0  0  0  0  0  0  0  0
    3.7320   -0.2616    0.0000 C   0  0  0  0  0  0  0  0  0  0  0  0
    2.8660    1.2384    0.0000 C   0  0  0  0  0  0  0  0  0  0  0  0
    2.8660   -0.7616    0.0000 C   0  0  0  0  0  0  0  0  0  0  0  0
    2.0000    0.7384    0.0000 C   0  0  0  0  0  0  0  0  0  0  0  0
    2.0000   -0.2616    0.0000 C   0  0  0  0  0  0  0  0  0  0  0  0
  1  8  1  0  0  0  0 
  1  9  1  0  0  0  0 
  2  4  1  0  0  0  0 
  2 10  1  0  0  0  0 
  2 11  1  0  0  0  0 
  3 11  1  0  0  0  0 
  3 12  1  0  0  0  0 
  3 13  1  0  0  0  0 
  4 12  1  0  0  0  0 
  5  6  1  0  0  0  0 
  5  7  1  0  0  0  0 
  5  8  1  0  0  0  0 
  6  7  1  0  0  0  0 
  9 10  1  0  0  0  0 
 12 14  1  0  0  0  0 
 13 15  1  0  0  0  0 
 14 16  1  0  0  0  0 
 15 16  1  0  0  0  0 
M  END
> <cdk:Title>
null

> <cdk:Remark>
null

> <PUBCHEM_COMPOUND_CID>
43656442

> <AMMOLITE_STRUCTURE_ID>
43656442_STRUCT

$$$$
