
  CDK     1217142145

 33 38  0  0  0  0  0  0  0  0999 V2000
   14.5031    0.4680    0.0000 N   0  0  0  0  0  0  0  0  0  0  0  0
    6.6671    0.0629    0.0000 N   0  0  0  0  0  0  0  0  0  0  0  0
   15.3691    0.9680    0.0000 N   0  0  3  0  0  0  0  0  0  0  0  0
   10.1729   -1.0320    0.0000 N   0  0  0  0  0  0  0  0  0  0  0  0
    8.4409   -0.0320    0.0000 N   0  0  0  0  0  0  0  0  0  0  0  0
    7.4718    1.4568    0.0000 N   0  0  0  0  0  0  0  0  0  0  0  0
   15.3691    1.9680    0.0000 C   0  0  0  0  0  0  0  0  0  0  0  0
   10.1729   -0.0320    0.0000 C   0  0  0  0  0  0  0  0  0  0  0  0
    9.3069   -1.5320    0.0000 C   0  0  0  0  0  0  0  0  0  0  0  0
    9.3069    0.4680    0.0000 C   0  0  0  0  0  0  0  0  0  0  0  0
    8.4409   -1.0320    0.0000 C   0  0  0  0  0  0  0  0  0  0  0  0
   16.2351    0.4680    0.0000 C   0  0  0  0  0  0  0  0  0  0  0  0
   16.2351    2.4680    0.0000 C   0  0  0  0  0  0  0  0  0  0  0  0
   17.1012    0.9680    0.0000 C   0  0  0  0  0  0  0  0  0  0  0  0
   17.1012    1.9680    0.0000 C   0  0  0  0  0  0  0  0  0  0  0  0
   13.6370   -0.0320    0.0000 C   0  0  0  0  0  0  0  0  0  0  0  0
   11.0390   -1.5320    0.0000 C   0  0  0  0  0  0  0  0  0  0  0  0
    7.5749    0.4680    0.0000 C   0  0  0  0  0  0  0  0  0  0  0  0
   11.9050   -1.0320    0.0000 C   0  0  0  0  0  0  0  0  0  0  0  0
   17.9951    0.4334    0.0000 C   0  0  0  0  0  0  0  0  0  0  0  0
   17.9951    2.5027    0.0000 C   0  0  0  0  0  0  0  0  0  0  0  0
   12.7710    0.4680    0.0000 C   0  0  0  0  0  0  0  0  0  0  0  0
   13.6370   -1.0320    0.0000 C   0  0  0  0  0  0  0  0  0  0  0  0
   11.9050   -0.0320    0.0000 C   0  0  0  0  0  0  0  0  0  0  0  0
   12.7710   -1.5320    0.0000 C   0  0  0  0  0  0  0  0  0  0  0  0
   18.9012    0.9472    0.0000 C   0  0  0  0  0  0  0  0  0  0  0  0
   18.9012    1.9888    0.0000 C   0  0  0  0  0  0  0  0  0  0  0  0
    6.0000    0.7999    0.0000 C   0  0  0  0  0  0  0  0  0  0  0  0
    6.5000    1.6660    0.0000 C   0  0  0  0  0  0  0  0  0  0  0  0
    5.0000    0.7999    0.0000 C   0  0  0  0  0  0  0  0  0  0  0  0
    6.0000    2.5320    0.0000 C   0  0  0  0  0  0  0  0  0  0  0  0
    4.5000    1.6660    0.0000 C   0  0  0  0  0  0  0  0  0  0  0  0
    5.0000    2.5320    0.0000 C   0  0  0  0  0  0  0  0  0  0  0  0
  1  3  1  0  0  0  0 
  1 16  1  0  0  0  0 
  2 18  1  0  0  0  0 
  2 28  1  0  0  0  0 
  3  7  1  0  0  0  0 
  3 12  1  0  0  0  0 
  4  8  1  0  0  0  0 
  4  9  1  0  0  0  0 
  4 17  1  0  0  0  0 
  5 10  1  0  0  0  0 
  5 11  1  0  0  0  0 
  5 18  1  0  0  0  0 
  6 18  1  0  0  0  0 
  6 29  1  0  0  0  0 
  7 13  1  0  0  0  0 
  8 10  1  0  0  0  0 
  9 11  1  0  0  0  0 
 12 14  1  0  0  0  0 
 13 15  1  0  0  0  0 
 14 15  1  0  0  0  0 
 14 20  1  0  0  0  0 
 15 21  1  0  0  0  0 
 16 22  1  0  0  0  0 
 16 23  1  0  0  0  0 
 17 19  1  0  0  0  0 
 19 24  1  0  0  0  0 
 19 25  1  0  0  0  0 
 20 26  1  0  0  0  0 
 21 27  1  0  0  0  0 
 22 24  1  0  0  0  0 
 23 25  1  0  0  0  0 
 26 27  1  0  0  0  0 
 28 29  1  0  0  0  0 
 28 30  1  0  0  0  0 
 29 31  1  0  0  0  0 
 30 32  1  0  0  0  0 
 31 33  1  0  0  0  0 
 32 33  1  0  0  0  0 
M  ISO  1   1  32
M  ISO  1   2  32
M  END
> <cdk:Title>
null

> <cdk:Remark>
null

> <PUBCHEM_COMPOUND_CID>
43981682

> <AMMOLITE_STRUCTURE_ID>
43981682_STRUCT

$$$$
