
  CDK     1217142145

 18 20  0  0  0  0  0  0  0  0999 V2000
    7.2764   -1.5064    0.0000 N   0  0  0  0  0  0  0  0  0  0  0  0
    5.4641    1.2984    0.0000 N   0  0  0  0  0  0  0  0  0  0  0  0
    7.8600   -0.7016    0.0000 N   0  0  0  0  0  0  0  0  0  0  0  0
    5.4641   -1.7016    0.0000 N   0  0  0  0  0  0  0  0  0  0  0  0
    4.5981   -0.2016    0.0000 N   0  0  0  0  0  0  0  0  0  0  0  0
    6.3301   -1.2016    0.0000 C   0  0  0  0  0  0  0  0  0  0  0  0
    6.3301   -0.2016    0.0000 C   0  0  0  0  0  0  0  0  0  0  0  0
    5.4641    0.2984    0.0000 C   0  0  0  0  0  0  0  0  0  0  0  0
    4.5981    1.7984    0.0000 C   0  0  0  0  0  0  0  0  0  0  0  0
    4.5981    2.7984    0.0000 C   0  0  0  0  0  0  0  0  0  0  0  0
    7.2764    0.1031    0.0000 C   0  0  0  0  0  0  0  0  0  0  0  0
    3.7320    3.2984    0.0000 C   0  0  0  0  0  0  0  0  0  0  0  0
    4.5981   -1.2016    0.0000 C   0  0  0  0  0  0  0  0  0  0  0  0
    3.7320    4.2984    0.0000 C   0  0  0  0  0  0  0  0  0  0  0  0
    2.8660    2.7984    0.0000 C   0  0  0  0  0  0  0  0  0  0  0  0
    2.8660    4.7984    0.0000 C   0  0  0  0  0  0  0  0  0  0  0  0
    2.0000    3.2984    0.0000 C   0  0  0  0  0  0  0  0  0  0  0  0
    2.0000    4.2984    0.0000 C   0  0  0  0  0  0  0  0  0  0  0  0
  1  3  1  0  0  0  0 
  1  6  1  0  0  0  0 
  2  8  1  0  0  0  0 
  2  9  1  0  0  0  0 
  3 11  1  0  0  0  0 
  4  6  1  0  0  0  0 
  4 13  1  0  0  0  0 
  5  8  1  0  0  0  0 
  5 13  1  0  0  0  0 
  6  7  1  0  0  0  0 
  7  8  1  0  0  0  0 
  7 11  1  0  0  0  0 
  9 10  1  0  0  0  0 
 10 12  1  0  0  0  0 
 12 14  1  0  0  0  0 
 12 15  1  0  0  0  0 
 14 16  1  0  0  0  0 
 15 17  1  0  0  0  0 
 16 18  1  0  0  0  0 
 17 18  1  0  0  0  0 
M  END
> <cdk:Title>
null

> <cdk:Remark>
null

> <PUBCHEM_COMPOUND_CID>
45543559

> <AMMOLITE_STRUCTURE_ID>
45543559_STRUCT

$$$$
