
  CDK     1217142145

 21 23  0  0  0  0  0  0  0  0999 V2000
    7.5622    4.6149    0.0000 N   0  0  0  0  0  0  0  0  0  0  0  0
    7.1962    1.5761    0.0000 N   0  0  0  0  0  0  0  0  0  0  0  0
    5.4641    0.5761    0.0000 N   0  0  0  0  0  0  0  0  0  0  0  0
    3.7320   -1.4239    0.0000 N   0  0  0  0  0  0  0  0  0  0  0  0
    7.2532    3.6639    0.0000 N   0  0  0  0  0  0  0  0  0  0  0  0
    6.3301    2.0761    0.0000 C   0  0  0  0  0  0  0  0  0  0  0  0
    7.1962    0.5761    0.0000 C   0  0  0  0  0  0  0  0  0  0  0  0
    5.4641    1.5761    0.0000 C   0  0  0  0  0  0  0  0  0  0  0  0
    6.3301    0.0761    0.0000 C   0  0  0  0  0  0  0  0  0  0  0  0
    8.0622    2.0761    0.0000 C   0  0  0  0  0  0  0  0  0  0  0  0
    4.5981    0.0761    0.0000 C   0  0  0  0  0  0  0  0  0  0  0  0
    8.0622    3.0761    0.0000 C   0  0  0  0  0  0  0  0  0  0  0  0
    4.5981   -0.9239    0.0000 C   0  0  0  0  0  0  0  0  0  0  0  0
    8.8712    3.6639    0.0000 C   0  0  0  0  0  0  0  0  0  0  0  0
    8.5622    4.6149    0.0000 C   0  0  0  0  0  0  0  0  0  0  0  0
    3.7320   -2.4239    0.0000 C   0  0  0  0  0  0  0  0  0  0  0  0
    2.8660   -2.9239    0.0000 C   0  0  0  0  0  0  0  0  0  0  0  0
    4.5981   -2.9239    0.0000 C   0  0  0  0  0  0  0  0  0  0  0  0
    2.8660   -3.9239    0.0000 C   0  0  0  0  0  0  0  0  0  0  0  0
    4.5981   -3.9239    0.0000 C   0  0  0  0  0  0  0  0  0  0  0  0
    3.7320   -4.4239    0.0000 C   0  0  0  0  0  0  0  0  0  0  0  0
  1  5  1  0  0  0  0 
  1 15  1  0  0  0  0 
  2  6  1  0  0  0  0 
  2  7  1  0  0  0  0 
  2 10  1  0  0  0  0 
  3  8  1  0  0  0  0 
  3  9  1  0  0  0  0 
  3 11  1  0  0  0  0 
  4 13  1  0  0  0  0 
  4 16  1  0  0  0  0 
  5 12  1  0  0  0  0 
  6  8  1  0  0  0  0 
  7  9  1  0  0  0  0 
 10 12  1  0  0  0  0 
 11 13  1  0  0  0  0 
 12 14  1  0  0  0  0 
 14 15  1  0  0  0  0 
 16 17  1  0  0  0  0 
 16 18  1  0  0  0  0 
 17 19  1  0  0  0  0 
 18 20  1  0  0  0  0 
 19 21  1  0  0  0  0 
 20 21  1  0  0  0  0 
M  ISO  1   1  16
M  END
> <cdk:Title>
null

> <cdk:Remark>
null

> <PUBCHEM_COMPOUND_CID>
45769398

> <AMMOLITE_STRUCTURE_ID>
45769398_STRUCT

$$$$
