
  CDK     1217142145

 22 24  0  0  0  0  0  0  0  0999 V2000
   10.7263   -0.2604    0.0000 N   0  0  0  0  0  0  0  0  0  0  0  0
    6.3981    0.2563    0.0000 N   0  0  0  0  0  0  0  0  0  0  0  0
    5.4920    1.8118    0.0000 N   0  0  0  0  0  0  0  0  0  0  0  0
   11.5942    0.2362    0.0000 C   0  0  3  0  0  0  0  0  0  0  0  0
   12.4583   -0.2671    0.0000 C   0  0  0  0  0  0  0  0  0  0  0  0
   12.4544   -1.2671    0.0000 C   0  0  0  0  0  0  0  0  0  0  0  0
   13.3262    0.2296    0.0000 C   0  0  0  0  0  0  0  0  0  0  0  0
    8.9942   -0.2537    0.0000 C   0  0  0  0  0  0  0  0  0  0  0  0
   14.1865   -1.2738    0.0000 C   0  0  0  0  0  0  0  0  0  0  0  0
    9.8622    0.2429    0.0000 C   0  0  0  0  0  0  0  0  0  0  0  0
    8.1301    0.2496    0.0000 C   0  0  0  0  0  0  0  0  0  0  0  0
   13.3185   -1.7704    0.0000 C   0  0  0  0  0  0  0  0  0  0  0  0
   14.1903   -0.2738    0.0000 C   0  0  0  0  0  0  0  0  0  0  0  0
    7.2622   -0.2471    0.0000 C   0  0  0  0  0  0  0  0  0  0  0  0
    5.4920   -0.2576    0.0000 C   0  0  0  0  0  0  0  0  0  0  0  0
    4.5981    0.2771    0.0000 C   0  0  0  0  0  0  0  0  0  0  0  0
    6.3981    1.2979    0.0000 C   0  0  0  0  0  0  0  0  0  0  0  0
    4.5981    1.2771    0.0000 C   0  0  0  0  0  0  0  0  0  0  0  0
    3.7320   -0.2229    0.0000 C   0  0  0  0  0  0  0  0  0  0  0  0
    3.7320    1.7771    0.0000 C   0  0  0  0  0  0  0  0  0  0  0  0
    2.8660    0.2771    0.0000 C   0  0  0  0  0  0  0  0  0  0  0  0
    2.8660    1.2771    0.0000 C   0  0  0  0  0  0  0  0  0  0  0  0
  1  4  1  0  0  0  0 
  1 10  1  0  0  0  0 
  2 14  1  0  0  0  0 
  2 15  1  0  0  0  0 
  2 17  1  0  0  0  0 
  3 17  1  0  0  0  0 
  3 18  1  0  0  0  0 
  4  5  1  0  0  0  0 
  5  6  1  0  0  0  0 
  5  7  1  0  0  0  0 
  6 12  1  0  0  0  0 
  7 13  1  0  0  0  0 
  8 10  1  0  0  0  0 
  8 11  1  0  0  0  0 
  9 12  1  0  0  0  0 
  9 13  1  0  0  0  0 
 11 14  1  0  0  0  0 
 15 16  1  0  0  0  0 
 16 18  1  0  0  0  0 
 16 19  1  0  0  0  0 
 18 20  1  0  0  0  0 
 19 21  1  0  0  0  0 
 20 22  1  0  0  0  0 
 21 22  1  0  0  0  0 
M  END
> <cdk:Title>
null

> <cdk:Remark>
null

> <PUBCHEM_COMPOUND_CID>
46420414

> <AMMOLITE_STRUCTURE_ID>
46420414_STRUCT

$$$$
