
  CDK     1217142145

 24 27  0  0  0  0  0  0  0  0999 V2000
   12.2708    1.1359    0.0000 N   0  0  0  0  0  0  0  0  0  0  0  0
   12.2708   -0.9334    0.0000 N   0  0  0  0  0  0  0  0  0  0  0  0
    3.5827   -0.8988    0.0000 N   0  0  0  0  0  0  0  0  0  0  0  0
    7.9128    0.6012    0.0000 N   0  0  0  0  0  0  0  0  0  0  0  0
    3.4782   -1.8933    0.0000 C   0  0  0  0  0  0  0  0  0  0  0  0
    2.5000   -2.1012    0.0000 C   0  0  0  0  0  0  0  0  0  0  0  0
    2.0000   -1.2352    0.0000 C   0  0  0  0  0  0  0  0  0  0  0  0
    2.6691   -0.4920    0.0000 C   0  0  0  0  0  0  0  0  0  0  0  0
    4.4487   -0.3988    0.0000 C   0  0  0  0  0  0  0  0  0  0  0  0
    7.0468    1.1012    0.0000 C   0  0  3  0  0  0  0  0  0  0  0  0
    6.1808    0.6012    0.0000 C   0  0  0  0  0  0  0  0  0  0  0  0
    5.3147   -0.8988    0.0000 C   0  0  0  0  0  0  0  0  0  0  0  0
    4.4487    0.6012    0.0000 C   0  0  0  0  0  0  0  0  0  0  0  0
    8.7788    1.1012    0.0000 C   0  0  0  0  0  0  0  0  0  0  0  0
    6.1808   -0.3988    0.0000 C   0  0  0  0  0  0  0  0  0  0  0  0
    5.3147    1.1012    0.0000 C   0  0  0  0  0  0  0  0  0  0  0  0
    9.6448    0.6012    0.0000 C   0  0  0  0  0  0  0  0  0  0  0  0
   10.5109    1.1012    0.0000 C   0  0  0  0  0  0  0  0  0  0  0  0
   11.3769    0.6012    0.0000 C   0  0  0  0  0  0  0  0  0  0  0  0
    9.6448   -0.3988    0.0000 C   0  0  0  0  0  0  0  0  0  0  0  0
   11.3769   -0.3988    0.0000 C   0  0  0  0  0  0  0  0  0  0  0  0
   10.5109   -0.8988    0.0000 C   0  0  0  0  0  0  0  0  0  0  0  0
   13.1769    0.6220    0.0000 C   0  0  0  0  0  0  0  0  0  0  0  0
   13.1769   -0.4196    0.0000 C   0  0  0  0  0  0  0  0  0  0  0  0
  1 19  1  0  0  0  0 
  1 23  1  0  0  0  0 
  2 21  1  0  0  0  0 
  2 24  1  0  0  0  0 
  3  5  1  0  0  0  0 
  3  8  1  0  0  0  0 
  3  9  1  0  0  0  0 
  4 10  1  0  0  0  0 
  4 14  1  0  0  0  0 
  5  6  1  0  0  0  0 
  6  7  1  0  0  0  0 
  7  8  1  0  0  0  0 
  9 12  1  0  0  0  0 
  9 13  1  0  0  0  0 
 10 11  1  0  0  0  0 
 11 15  1  0  0  0  0 
 11 16  1  0  0  0  0 
 12 15  1  0  0  0  0 
 13 16  1  0  0  0  0 
 14 17  1  0  0  0  0 
 17 18  1  0  0  0  0 
 17 20  1  0  0  0  0 
 18 19  1  0  0  0  0 
 19 21  1  0  0  0  0 
 20 22  1  0  0  0  0 
 21 22  1  0  0  0  0 
 23 24  1  0  0  0  0 
M  ISO  1   1  16
M  ISO  1   2  16
M  END
> <cdk:Title>
null

> <cdk:Remark>
null

> <PUBCHEM_COMPOUND_CID>
48826350

> <AMMOLITE_STRUCTURE_ID>
48826350_STRUCT

$$$$

  CDK     1217142145

 24 27  0  0  0  0  0  0  0  0999 V2000
    8.7788    0.5839    0.0000 N   0  0  0  0  0  0  0  0  0  0  0  0
   12.2708    2.6186    0.0000 N   0  0  0  0  0  0  0  0  0  0  0  0
    3.5827   -1.4161    0.0000 N   0  0  0  0  0  0  0  0  0  0  0  0
    7.9128    0.0839    0.0000 N   0  0  0  0  0  0  0  0  0  0  0  0
    2.0000   -1.7525    0.0000 C   0  0  0  0  0  0  0  0  0  0  0  0
    2.5000   -2.6186    0.0000 C   0  0  0  0  0  0  0  0  0  0  0  0
    2.6691   -1.0094    0.0000 C   0  0  0  0  0  0  0  0  0  0  0  0
    3.4782   -2.4106    0.0000 C   0  0  0  0  0  0  0  0  0  0  0  0
    4.4487   -0.9161    0.0000 C   0  0  0  0  0  0  0  0  0  0  0  0
    4.4487    0.0839    0.0000 C   0  0  0  0  0  0  0  0  0  0  0  0
    5.3147   -1.4161    0.0000 C   0  0  0  0  0  0  0  0  0  0  0  0
    6.1808    0.0839    0.0000 C   0  0  0  0  0  0  0  0  0  0  0  0
    5.3147    0.5839    0.0000 C   0  0  0  0  0  0  0  0  0  0  0  0
    6.1808   -0.9161    0.0000 C   0  0  0  0  0  0  0  0  0  0  0  0
    7.0468    0.5839    0.0000 C   0  0  0  0  0  0  0  0  0  0  0  0
    9.6449    1.0839    0.0000 C   0  0  0  0  0  0  0  0  0  0  0  0
   10.5109    0.5839    0.0000 C   0  0  0  0  0  0  0  0  0  0  0  0
   11.3769    1.0839    0.0000 C   0  0  0  0  0  0  0  0  0  0  0  0
    9.6449    2.0839    0.0000 C   0  0  0  0  0  0  0  0  0  0  0  0
   11.3769    2.0839    0.0000 C   0  0  0  0  0  0  0  0  0  0  0  0
   10.5109    2.5839    0.0000 C   0  0  0  0  0  0  0  0  0  0  0  0
   12.2708    0.5492    0.0000 C   0  0  0  0  0  0  0  0  0  0  0  0
   13.1769    1.0631    0.0000 C   0  0  0  0  0  0  0  0  0  0  0  0
   13.1769    2.1047    0.0000 C   0  0  0  0  0  0  0  0  0  0  0  0
  1  4  1  0  0  0  0 
  1 16  1  0  0  0  0 
  2 20  1  0  0  0  0 
  2 24  1  0  0  0  0 
  3  7  1  0  0  0  0 
  3  8  1  0  0  0  0 
  3  9  1  0  0  0  0 
  4 15  1  0  0  0  0 
  5  6  1  0  0  0  0 
  5  7  1  0  0  0  0 
  6  8  1  0  0  0  0 
  9 10  1  0  0  0  0 
  9 11  1  0  0  0  0 
 10 13  1  0  0  0  0 
 11 14  1  0  0  0  0 
 12 13  1  0  0  0  0 
 12 14  1  0  0  0  0 
 12 15  1  0  0  0  0 
 16 17  1  0  0  0  0 
 16 19  1  0  0  0  0 
 17 18  1  0  0  0  0 
 18 20  1  0  0  0  0 
 18 22  1  0  0  0  0 
 19 21  1  0  0  0  0 
 20 21  1  0  0  0  0 
 22 23  1  0  0  0  0 
 23 24  1  0  0  0  0 
M  ISO  1   1  32
M  ISO  1   2  16
M  END
> <cdk:Title>
null

> <cdk:Remark>
null

> <PUBCHEM_COMPOUND_CID>
37551805

> <AMMOLITE_STRUCTURE_ID>
37551805_STRUCT

$$$$
