
  CDK     1217142145

 17 19  0  0  0  0  0  0  0  0999 V2000
    4.6783    0.6708    0.0000 N   0  0  0  0  0  0  0  0  0  0  0  0
    6.7619   -1.0000    0.0000 N   0  0  0  0  0  0  0  0  0  0  0  0
    3.7320    0.3660    0.0000 C   0  0  0  0  0  0  0  0  0  0  0  0
    3.7320   -0.6340    0.0000 C   0  0  0  0  0  0  0  0  0  0  0  0
    5.2619   -0.1340    0.0000 C   0  0  0  0  0  0  0  0  0  0  0  0
    2.8660    0.8660    0.0000 C   0  0  0  0  0  0  0  0  0  0  0  0
    4.6783   -0.9387    0.0000 C   0  0  0  0  0  0  0  0  0  0  0  0
    6.2619   -0.1340    0.0000 C   0  0  0  0  0  0  0  0  0  0  0  0
    2.8660   -1.1340    0.0000 C   0  0  0  0  0  0  0  0  0  0  0  0
    2.0000    0.3660    0.0000 C   0  0  0  0  0  0  0  0  0  0  0  0
    7.7619   -1.0000    0.0000 C   0  0  0  0  0  0  0  0  0  0  0  0
    2.0000   -0.6340    0.0000 C   0  0  0  0  0  0  0  0  0  0  0  0
    8.2619   -1.8660    0.0000 C   0  0  0  0  0  0  0  0  0  0  0  0
    8.2619   -0.1340    0.0000 C   0  0  0  0  0  0  0  0  0  0  0  0
    9.2619   -1.8660    0.0000 C   0  0  0  0  0  0  0  0  0  0  0  0
    9.2619   -0.1340    0.0000 C   0  0  0  0  0  0  0  0  0  0  0  0
    9.7619   -1.0000    0.0000 C   0  0  0  0  0  0  0  0  0  0  0  0
  1  3  1  0  0  0  0 
  1  5  1  0  0  0  0 
  2  8  1  0  0  0  0 
  2 11  1  0  0  0  0 
  3  4  1  0  0  0  0 
  3  6  1  0  0  0  0 
  4  7  1  0  0  0  0 
  4  9  1  0  0  0  0 
  5  7  1  0  0  0  0 
  5  8  1  0  0  0  0 
  6 10  1  0  0  0  0 
  9 12  1  0  0  0  0 
 10 12  1  0  0  0  0 
 11 13  1  0  0  0  0 
 11 14  1  0  0  0  0 
 13 15  1  0  0  0  0 
 14 16  1  0  0  0  0 
 15 17  1  0  0  0  0 
 16 17  1  0  0  0  0 
M  ISO  1   1  16
M  END
> <cdk:Title>
null

> <cdk:Remark>
null

> <PUBCHEM_COMPOUND_CID>
48983308

> <AMMOLITE_STRUCTURE_ID>
48983308_STRUCT

$$$$
