
  CDK     1217142145

 24 27  0  0  0  0  0  0  0  0999 V2000
    7.1962    0.4827    0.0000 N   0  0  0  0  0  0  0  0  0  0  0  0
    5.4641   -0.5173    0.0000 N   0  0  0  0  0  0  0  0  0  0  0  0
    9.7942    0.9827    0.0000 N   0  0  0  0  0  0  0  0  0  0  0  0
    9.7942    1.9827    0.0000 N   0  0  0  0  0  0  0  0  0  0  0  0
   10.6603    2.4827    0.0000 N   0  0  0  0  0  0  0  0  0  0  0  0
    6.3301    0.9827    0.0000 C   0  0  0  0  0  0  0  0  0  0  0  0
    7.1962   -0.5173    0.0000 C   0  0  0  0  0  0  0  0  0  0  0  0
    5.4641    0.4827    0.0000 C   0  0  0  0  0  0  0  0  0  0  0  0
    6.3301   -1.0173    0.0000 C   0  0  0  0  0  0  0  0  0  0  0  0
    8.0622    0.9827    0.0000 C   0  0  0  0  0  0  0  0  0  0  0  0
    8.9282    0.4827    0.0000 C   0  0  3  0  0  0  0  0  0  0  0  0
    4.5981   -1.0173    0.0000 C   0  0  0  0  0  0  0  0  0  0  0  0
    3.7320   -0.5173    0.0000 C   0  0  0  0  0  0  0  0  0  0  0  0
    4.5981   -2.0173    0.0000 C   0  0  0  0  0  0  0  0  0  0  0  0
   10.6603    0.4827    0.0000 C   0  0  0  0  0  0  0  0  0  0  0  0
   11.5263    0.9827    0.0000 C   0  0  0  0  0  0  0  0  0  0  0  0
    2.8660   -1.0173    0.0000 C   0  0  0  0  0  0  0  0  0  0  0  0
    3.7320   -2.5173    0.0000 C   0  0  0  0  0  0  0  0  0  0  0  0
    2.8660   -2.0173    0.0000 C   0  0  0  0  0  0  0  0  0  0  0  0
   11.5263    1.9827    0.0000 C   0  0  0  0  0  0  0  0  0  0  0  0
   12.4202    0.4480    0.0000 C   0  0  0  0  0  0  0  0  0  0  0  0
   12.4202    2.5173    0.0000 C   0  0  0  0  0  0  0  0  0  0  0  0
   13.3263    0.9619    0.0000 C   0  0  0  0  0  0  0  0  0  0  0  0
   13.3263    2.0035    0.0000 C   0  0  0  0  0  0  0  0  0  0  0  0
  1  6  1  0  0  0  0 
  1  7  1  0  0  0  0 
  1 10  1  0  0  0  0 
  2  8  1  0  0  0  0 
  2  9  1  0  0  0  0 
  2 12  1  0  0  0  0 
  3  4  1  0  0  0  0 
  3 11  1  0  0  0  0 
  3 15  1  0  0  0  0 
  4  5  1  0  0  0  0 
  5 20  1  0  0  0  0 
  6  8  1  0  0  0  0 
  7  9  1  0  0  0  0 
 10 11  1  0  0  0  0 
 12 13  1  0  0  0  0 
 12 14  1  0  0  0  0 
 13 17  1  0  0  0  0 
 14 18  1  0  0  0  0 
 15 16  1  0  0  0  0 
 16 20  1  0  0  0  0 
 16 21  1  0  0  0  0 
 17 19  1  0  0  0  0 
 18 19  1  0  0  0  0 
 20 22  1  0  0  0  0 
 21 23  1  0  0  0  0 
 22 24  1  0  0  0  0 
 23 24  1  0  0  0  0 
M  END
> <cdk:Title>
null

> <cdk:Remark>
null

> <PUBCHEM_COMPOUND_CID>
49719724

> <AMMOLITE_STRUCTURE_ID>
49719724_STRUCT

$$$$
