
  CDK     1217142145

 24 27  0  0  0  0  0  0  0  0999 V2000
    2.6691    2.7420    0.0000 N   0  0  0  0  0  0  0  0  0  0  0  0
    6.1808   -0.3512    0.0000 N   0  0  0  0  0  0  0  0  0  0  0  0
    4.4487   -0.3512    0.0000 N   0  0  0  0  0  0  0  0  0  0  0  0
    4.4487    2.6488    0.0000 N   0  0  0  0  0  0  0  0  0  0  0  0
    3.4782    4.1433    0.0000 N   0  0  0  0  0  0  0  0  0  0  0  0
    7.0468    1.1488    0.0000 C   0  0  0  0  0  0  0  0  0  0  0  0
    5.3147    1.1488    0.0000 C   0  0  0  0  0  0  0  0  0  0  0  0
    5.3147    0.1488    0.0000 C   0  0  0  0  0  0  0  0  0  0  0  0
    7.0468    0.1488    0.0000 C   0  0  0  0  0  0  0  0  0  0  0  0
    6.1808    1.6488    0.0000 C   0  0  0  0  0  0  0  0  0  0  0  0
    4.4487   -1.3512    0.0000 C   0  0  0  0  0  0  0  0  0  0  0  0
    7.9407    1.6834    0.0000 C   0  0  0  0  0  0  0  0  0  0  0  0
    7.9407   -0.3859    0.0000 C   0  0  0  0  0  0  0  0  0  0  0  0
    4.4487    1.6488    0.0000 C   0  0  0  0  0  0  0  0  0  0  0  0
    3.5827   -1.8512    0.0000 C   0  0  0  0  0  0  0  0  0  0  0  0
    5.3147   -1.8512    0.0000 C   0  0  0  0  0  0  0  0  0  0  0  0
    8.8468    1.1696    0.0000 C   0  0  0  0  0  0  0  0  0  0  0  0
    8.8468    0.1280    0.0000 C   0  0  0  0  0  0  0  0  0  0  0  0
    4.4487   -3.3512    0.0000 C   0  0  0  0  0  0  0  0  0  0  0  0
    3.5827   -2.8512    0.0000 C   0  0  0  0  0  0  0  0  0  0  0  0
    5.3147   -2.8512    0.0000 C   0  0  0  0  0  0  0  0  0  0  0  0
    3.5827    3.1488    0.0000 C   0  0  0  0  0  0  0  0  0  0  0  0
    2.0000    3.4852    0.0000 C   0  0  0  0  0  0  0  0  0  0  0  0
    2.5000    4.3512    0.0000 C   0  0  0  0  0  0  0  0  0  0  0  0
  1 22  1  0  0  0  0 
  1 23  1  0  0  0  0 
  2  8  1  0  0  0  0 
  2  9  1  0  0  0  0 
  3  8  1  0  0  0  0 
  3 11  1  0  0  0  0 
  4 14  1  0  0  0  0 
  4 22  1  0  0  0  0 
  5 22  1  0  0  0  0 
  5 24  1  0  0  0  0 
  6  9  1  0  0  0  0 
  6 10  1  0  0  0  0 
  6 12  1  0  0  0  0 
  7  8  1  0  0  0  0 
  7 10  1  0  0  0  0 
  7 14  1  0  0  0  0 
  9 13  1  0  0  0  0 
 11 15  1  0  0  0  0 
 11 16  1  0  0  0  0 
 12 17  1  0  0  0  0 
 13 18  1  0  0  0  0 
 15 20  1  0  0  0  0 
 16 21  1  0  0  0  0 
 17 18  1  0  0  0  0 
 19 20  1  0  0  0  0 
 19 21  1  0  0  0  0 
 23 24  1  0  0  0  0 
M  ISO  1   1  32
M  ISO  1   2  16
M  END
> <cdk:Title>
null

> <cdk:Remark>
null

> <PUBCHEM_COMPOUND_CID>
51368099

> <AMMOLITE_STRUCTURE_ID>
51368099_STRUCT

$$$$
