
  CDK     1217142145

 25 29  0  0  0  0  0  0  0  0999 V2000
    6.0047    0.3589    0.0000 N   0  0  0  0  0  0  0  0  0  0  0  0
    5.5047   -1.1799    0.0000 N   0  0  0  0  0  0  0  0  0  0  0  0
    8.0363   -0.4111    0.0000 N   0  0  0  0  0  0  0  0  0  0  0  0
   11.4814   -0.0490    0.0000 N   0  0  0  0  0  0  0  0  0  0  0  0
   11.6893   -1.0271    0.0000 N   0  0  0  0  0  0  0  0  0  0  0  0
   13.0906   -0.2181    0.0000 N   0  0  0  0  0  0  0  0  0  0  0  0
   12.6838   -1.1317    0.0000 N   0  0  0  0  0  0  0  0  0  0  0  0
    6.3137   -0.5921    0.0000 C   0  0  2  0  0  0  0  0  0  0  0  0
    7.1164   -1.1785    0.0000 C   0  0  0  0  0  0  0  0  0  0  0  0
    6.8084   -2.1237    0.0000 C   0  0  0  0  0  0  0  0  0  0  0  0
    5.8143   -2.1245    0.0000 C   0  0  0  0  0  0  0  0  0  0  0  0
    4.6957   -0.5921    0.0000 C   0  0  0  0  0  0  0  0  0  0  0  0
    7.1227   -0.0043    0.0000 C   0  0  0  0  0  0  0  0  0  0  0  0
    5.0047    0.3589    0.0000 C   0  0  0  0  0  0  0  0  0  0  0  0
    3.6803   -0.8244    0.0000 C   0  0  0  0  0  0  0  0  0  0  0  0
    4.3197    1.1437    0.0000 C   0  0  0  0  0  0  0  0  0  0  0  0
    2.9773   -0.0557    0.0000 C   0  0  0  0  0  0  0  0  0  0  0  0
    3.2992    0.9350    0.0000 C   0  0  0  0  0  0  0  0  0  0  0  0
    8.8453    0.1767    0.0000 C   0  0  0  0  0  0  0  0  0  0  0  0
    9.7588   -0.2300    0.0000 C   0  0  0  0  0  0  0  0  0  0  0  0
    8.7408    1.1712    0.0000 C   0  0  0  0  0  0  0  0  0  0  0  0
   10.5679    0.3577    0.0000 C   0  0  0  0  0  0  0  0  0  0  0  0
    9.5498    1.7590    0.0000 C   0  0  0  0  0  0  0  0  0  0  0  0
   10.4633    1.3523    0.0000 C   0  0  0  0  0  0  0  0  0  0  0  0
   12.3474    0.4510    0.0000 C   0  0  0  0  0  0  0  0  0  0  0  0
  1  8  1  0  0  0  0 
  1 14  1  0  0  0  0 
  2  8  1  0  0  0  0 
  2 11  1  0  0  0  0 
  2 12  1  0  0  0  0 
  3 13  1  0  0  0  0 
  3 19  1  0  0  0  0 
  4  5  1  0  0  0  0 
  4 22  1  0  0  0  0 
  4 25  1  0  0  0  0 
  5  7  1  0  0  0  0 
  6  7  1  0  0  0  0 
  6 25  1  0  0  0  0 
  8  9  1  0  0  0  0 
  8 13  1  6  0  0  0 
  9 10  1  0  0  0  0 
 10 11  1  0  0  0  0 
 12 14  1  0  0  0  0 
 12 15  1  0  0  0  0 
 14 16  1  0  0  0  0 
 15 17  1  0  0  0  0 
 16 18  1  0  0  0  0 
 17 18  1  0  0  0  0 
 19 20  1  0  0  0  0 
 19 21  1  0  0  0  0 
 20 22  1  0  0  0  0 
 21 23  1  0  0  0  0 
 22 24  1  0  0  0  0 
 23 24  1  0  0  0  0 
M  ISO  1   1  32
M  END
> <cdk:Title>
null

> <cdk:Remark>
null

> <PUBCHEM_COMPOUND_CID>
52866886

> <AMMOLITE_STRUCTURE_ID>
52866886_STRUCT

$$$$
