
  CDK     1217142145

 19 21  0  0  0  0  0  0  0  0999 V2000
    3.2601    0.5901    0.0000 N   0  0  0  0  0  0  0  0  0  0  0  0
    4.8479    1.3991    0.0000 N   0  0  3  0  0  0  0  0  0  0  0  0
    4.5691   -0.3610    0.0000 N   0  0  0  0  0  0  0  0  0  0  0  0
    4.0344    3.2262    0.0000 N   0  0  0  0  0  0  0  0  0  0  0  0
    5.4356    2.2081    0.0000 C   0  0  0  0  0  0  0  0  0  0  0  0
    4.2601    0.5901    0.0000 C   0  0  0  0  0  0  0  0  0  0  0  0
    5.0289    3.1217    0.0000 C   0  0  0  0  0  0  0  0  0  0  0  0
    3.7601   -0.9488    0.0000 C   0  0  0  0  0  0  0  0  0  0  0  0
    2.9511   -0.3610    0.0000 C   0  0  0  0  0  0  0  0  0  0  0  0
    3.7601   -1.9488    0.0000 C   0  0  0  0  0  0  0  0  0  0  0  0
    5.6167    3.9307    0.0000 C   0  0  0  0  0  0  0  0  0  0  0  0
    4.6261   -2.4488    0.0000 C   0  0  0  0  0  0  0  0  0  0  0  0
    2.8940   -2.4488    0.0000 C   0  0  0  0  0  0  0  0  0  0  0  0
    4.6261   -3.4488    0.0000 C   0  0  0  0  0  0  0  0  0  0  0  0
    2.8940   -3.4488    0.0000 C   0  0  0  0  0  0  0  0  0  0  0  0
    3.7601   -3.9488    0.0000 C   0  0  0  0  0  0  0  0  0  0  0  0
    5.2100    4.8442    0.0000 C   0  0  0  0  0  0  0  0  0  0  0  0
    3.6276    4.1397    0.0000 C   0  0  0  0  0  0  0  0  0  0  0  0
    4.2154    4.9488    0.0000 C   0  0  0  0  0  0  0  0  0  0  0  0
  1  6  1  0  0  0  0 
  1  9  1  0  0  0  0 
  2  5  1  0  0  0  0 
  2  6  1  0  0  0  0 
  3  6  1  0  0  0  0 
  3  8  1  0  0  0  0 
  4  7  1  0  0  0  0 
  4 18  1  0  0  0  0 
  5  7  1  0  0  0  0 
  7 11  1  0  0  0  0 
  8  9  1  0  0  0  0 
  8 10  1  0  0  0  0 
 10 12  1  0  0  0  0 
 10 13  1  0  0  0  0 
 11 17  1  0  0  0  0 
 12 14  1  0  0  0  0 
 13 15  1  0  0  0  0 
 14 16  1  0  0  0  0 
 15 16  1  0  0  0  0 
 17 19  1  0  0  0  0 
 18 19  1  0  0  0  0 
M  CHG  1   2   1
M  ISO  1   1  32
M  END
> <cdk:Title>
null

> <cdk:Remark>
null

> <PUBCHEM_COMPOUND_CID>
54068030

> <AMMOLITE_STRUCTURE_ID>
54068030_STRUCT

$$$$

  CDK     1217142145

 19 21  0  0  0  0  0  0  0  0999 V2000
    7.4128   -3.2756    0.0000 N   0  0  0  0  0  0  0  0  0  0  0  0
    5.4641   -0.5732    0.0000 N   0  0  0  0  0  0  0  0  0  0  0  0
    7.2437   -1.6664    0.0000 N   0  0  0  0  0  0  0  0  0  0  0  0
    3.7320    1.4268    0.0000 C   0  0  0  0  0  0  0  0  0  0  0  0
    2.8660    0.9268    0.0000 C   0  0  0  0  0  0  0  0  0  0  0  0
    4.5981   -0.0732    0.0000 C   0  0  0  0  0  0  0  0  0  0  0  0
    4.5981    0.9268    0.0000 C   0  0  0  0  0  0  0  0  0  0  0  0
    2.8660   -0.0732    0.0000 C   0  0  0  0  0  0  0  0  0  0  0  0
    3.7320   -0.5732    0.0000 C   0  0  0  0  0  0  0  0  0  0  0  0
    6.3301   -2.0732    0.0000 C   0  0  0  0  0  0  0  0  0  0  0  0
    5.4641   -1.5732    0.0000 C   0  0  0  0  0  0  0  0  0  0  0  0
    6.4347   -3.0677    0.0000 C   0  0  0  0  0  0  0  0  0  0  0  0
    7.9128   -2.4096    0.0000 C   0  0  0  0  0  0  0  0  0  0  0  0
    8.9073   -2.3050    0.0000 C   0  0  0  0  0  0  0  0  0  0  0  0
    9.4951   -3.1141    0.0000 C   0  0  0  0  0  0  0  0  0  0  0  0
    9.3141   -1.3915    0.0000 C   0  0  0  0  0  0  0  0  0  0  0  0
   10.4896   -3.0095    0.0000 C   0  0  0  0  0  0  0  0  0  0  0  0
   10.3086   -1.2870    0.0000 C   0  0  0  0  0  0  0  0  0  0  0  0
   10.8964   -2.0960    0.0000 C   0  0  0  0  0  0  0  0  0  0  0  0
  1 12  1  0  0  0  0 
  1 13  1  0  0  0  0 
  2  6  1  0  0  0  0 
  2 11  1  0  0  0  0 
  3 10  1  0  0  0  0 
  3 13  1  0  0  0  0 
  4  5  1  0  0  0  0 
  4  7  1  0  0  0  0 
  5  8  1  0  0  0  0 
  6  7  1  0  0  0  0 
  6  9  1  0  0  0  0 
  8  9  1  0  0  0  0 
 10 11  1  0  0  0  0 
 10 12  1  0  0  0  0 
 13 14  1  0  0  0  0 
 14 15  1  0  0  0  0 
 14 16  1  0  0  0  0 
 15 17  1  0  0  0  0 
 16 18  1  0  0  0  0 
 17 19  1  0  0  0  0 
 18 19  1  0  0  0  0 
M  ISO  1   1  16
M  END
> <cdk:Title>
null

> <cdk:Remark>
null

> <PUBCHEM_COMPOUND_CID>
34408212

> <AMMOLITE_STRUCTURE_ID>
34408212_STRUCT

$$$$
