
  CDK     1217142145

 24 26  0  0  0  0  0  0  0  0999 V2000
    5.4071   -5.0684    0.0000 N   0  0  0  0  0  0  0  0  0  0  0  0
    7.1962    0.0194    0.0000 N   0  0  0  0  0  0  0  0  0  0  0  0
    5.4641   -2.9806    0.0000 N   0  0  0  0  0  0  0  0  0  0  0  0
    7.1962    1.0194    0.0000 C   0  0  3  0  0  0  0  0  0  0  0  0
    8.0622    1.5194    0.0000 C   0  0  0  0  0  0  0  0  0  0  0  0
    8.9282    1.0194    0.0000 C   0  0  0  0  0  0  0  0  0  0  0  0
    8.0622   -0.4806    0.0000 C   0  0  0  0  0  0  0  0  0  0  0  0
    8.9282    0.0194    0.0000 C   0  0  0  0  0  0  0  0  0  0  0  0
    6.3301    1.5194    0.0000 C   0  0  0  0  0  0  0  0  0  0  0  0
    6.3301    2.5194    0.0000 C   0  0  0  0  0  0  0  0  0  0  0  0
    6.3301   -0.4806    0.0000 C   0  0  0  0  0  0  0  0  0  0  0  0
    6.3301   -1.4806    0.0000 C   0  0  0  0  0  0  0  0  0  0  0  0
    5.4641    3.0194    0.0000 C   0  0  0  0  0  0  0  0  0  0  0  0
    5.4641   -1.9806    0.0000 C   0  0  0  0  0  0  0  0  0  0  0  0
    5.4641    4.0194    0.0000 C   0  0  0  0  0  0  0  0  0  0  0  0
    4.5981    2.5194    0.0000 C   0  0  0  0  0  0  0  0  0  0  0  0
    4.5981    4.5194    0.0000 C   0  0  0  0  0  0  0  0  0  0  0  0
    3.7320    3.0194    0.0000 C   0  0  0  0  0  0  0  0  0  0  0  0
    3.7320    4.0194    0.0000 C   0  0  0  0  0  0  0  0  0  0  0  0
    4.5981   -3.4806    0.0000 C   0  0  0  0  0  0  0  0  0  0  0  0
    4.5981   -4.4806    0.0000 C   0  0  0  0  0  0  0  0  0  0  0  0
    3.7891   -5.0684    0.0000 C   0  0  0  0  0  0  0  0  0  0  0  0
    4.0981   -6.0194    0.0000 C   0  0  0  0  0  0  0  0  0  0  0  0
    5.0981   -6.0194    0.0000 C   0  0  0  0  0  0  0  0  0  0  0  0
  1 21  1  0  0  0  0 
  1 24  1  0  0  0  0 
  2  4  1  0  0  0  0 
  2  7  1  0  0  0  0 
  2 11  1  0  0  0  0 
  3 14  1  0  0  0  0 
  3 20  1  0  0  0  0 
  4  5  1  0  0  0  0 
  4  9  1  0  0  0  0 
  5  6  1  0  0  0  0 
  6  8  1  0  0  0  0 
  7  8  1  0  0  0  0 
  9 10  1  0  0  0  0 
 10 13  1  0  0  0  0 
 11 12  1  0  0  0  0 
 12 14  1  0  0  0  0 
 13 15  1  0  0  0  0 
 13 16  1  0  0  0  0 
 15 17  1  0  0  0  0 
 16 18  1  0  0  0  0 
 17 19  1  0  0  0  0 
 18 19  1  0  0  0  0 
 20 21  1  0  0  0  0 
 21 22  1  0  0  0  0 
 22 23  1  0  0  0  0 
 23 24  1  0  0  0  0 
M  ISO  1   1  16
M  END
> <cdk:Title>
null

> <cdk:Remark>
null

> <PUBCHEM_COMPOUND_CID>
56370184

> <AMMOLITE_STRUCTURE_ID>
56370184_STRUCT

$$$$
