
  CDK     1217142145

 17 20  0  0  0  0  0  0  0  0999 V2000
    7.3931    0.3257    0.0000 C   0  0  2  0  0  0  0  0  0  0  0  0
    7.3931    1.3257    0.0000 C   0  0  2  0  0  0  0  0  0  0  0  0
    6.5271   -0.1743    0.0000 C   0  0  1  0  0  0  0  0  0  0  0  0
    5.6610    0.3257    0.0000 C   0  0  2  0  0  0  0  0  0  0  0  0
    6.5271    1.8257    0.0000 C   0  0  0  0  0  0  0  0  0  0  0  0
    5.6610    1.3257    0.0000 C   0  0  0  0  0  0  0  0  0  0  0  0
    8.3393    0.0210    0.0000 C   0  0  0  0  0  0  0  0  0  0  0  0
    8.3393    1.6304    0.0000 C   0  0  0  0  0  0  0  0  0  0  0  0
    4.7510   -0.1811    0.0000 C   0  0  2  0  0  0  0  0  0  0  0  0
    6.5431   -1.2158    0.0000 C   0  0  2  0  0  0  0  0  0  0  0  0
    8.9229    0.8257    0.0000 C   0  0  0  0  0  0  0  0  0  0  0  0
    5.6451   -1.7436    0.0000 C   0  0  0  0  0  0  0  0  0  0  0  0
    4.7430   -1.2227    0.0000 C   0  0  0  0  0  0  0  0  0  0  0  0
    3.8242    0.3829    0.0000 C   0  0  0  0  0  0  0  0  0  0  0  0
    2.8763   -0.1450    0.0000 C   0  0  0  0  0  0  0  0  0  0  0  0
    3.8076   -1.7725    0.0000 C   0  0  0  0  0  0  0  0  0  0  0  0
    2.8680   -1.2300    0.0000 C   0  0  0  0  0  0  0  0  0  0  0  0
  1  2  1  0  0  0  0 
  1  3  1  0  0  0  0 
  1  7  1  0  0  0  0 
  2  5  1  0  0  0  0 
  2  8  1  0  0  0  0 
  3  4  1  0  0  0  0 
  3 10  1  0  0  0  0 
  4  6  1  0  0  0  0 
  4  9  1  0  0  0  0 
  5  6  1  0  0  0  0 
  7 11  1  0  0  0  0 
  8 11  1  0  0  0  0 
  9 13  1  0  0  0  0 
  9 14  1  0  0  0  0 
 10 12  1  0  0  0  0 
 12 13  1  0  0  0  0 
 13 16  1  0  0  0  0 
 14 15  1  0  0  0  0 
 15 17  1  0  0  0  0 
 16 17  1  0  0  0  0 
M  END
> <cdk:Title>
null

> <cdk:Remark>
null

> <PUBCHEM_COMPOUND_CID>
57147570

> <AMMOLITE_STRUCTURE_ID>
57147570_STRUCT

$$$$
