
  CDK     1217142145

 26 29  0  0  0  0  0  0  0  0999 V2000
    6.6227    3.9283    0.0000 N   0  0  0  0  0  0  0  0  0  0  0  0
    5.7567    3.4283    0.0000 N   0  0  0  0  0  0  0  0  0  0  0  0
    3.3080   -1.4081    0.0000 N   0  0  0  0  0  0  0  0  0  0  0  0
    4.7861   -2.0662    0.0000 N   0  0  0  0  0  0  0  0  0  0  0  0
    7.4888    4.4283    0.0000 C   0  0  0  0  0  0  0  0  0  0  0  0
    5.7567    0.4283    0.0000 C   0  0  0  0  0  0  0  0  0  0  0  0
    5.7567    2.4283    0.0000 C   0  0  0  0  0  0  0  0  0  0  0  0
    4.8907    1.9283    0.0000 C   0  0  0  0  0  0  0  0  0  0  0  0
    4.8907    0.9283    0.0000 C   0  0  0  0  0  0  0  0  0  0  0  0
    6.6227    0.9283    0.0000 C   0  0  0  0  0  0  0  0  0  0  0  0
    6.6227    1.9283    0.0000 C   0  0  0  0  0  0  0  0  0  0  0  0
    5.7567   -0.5717    0.0000 C   0  0  0  0  0  0  0  0  0  0  0  0
    8.3548    3.9283    0.0000 C   0  0  0  0  0  0  0  0  0  0  0  0
    7.4888    5.4283    0.0000 C   0  0  0  0  0  0  0  0  0  0  0  0
    4.8907   -1.0717    0.0000 C   0  0  0  0  0  0  0  0  0  0  0  0
    3.4013   -3.1877    0.0000 C   0  0  0  0  0  0  0  0  0  0  0  0
    9.2208    5.4283    0.0000 C   0  0  0  0  0  0  0  0  0  0  0  0
    3.8080   -2.2741    0.0000 C   0  0  0  0  0  0  0  0  0  0  0  0
    9.2208    4.4283    0.0000 C   0  0  0  0  0  0  0  0  0  0  0  0
    8.3548    5.9283    0.0000 C   0  0  0  0  0  0  0  0  0  0  0  0
    2.5878   -5.0148    0.0000 C   0  0  0  0  0  0  0  0  0  0  0  0
    2.4067   -3.2922    0.0000 C   0  0  0  0  0  0  0  0  0  0  0  0
    3.9890   -3.9967    0.0000 C   0  0  0  0  0  0  0  0  0  0  0  0
    3.9771   -0.6650    0.0000 C   0  0  0  0  0  0  0  0  0  0  0  0
    2.0000   -4.2058    0.0000 C   0  0  0  0  0  0  0  0  0  0  0  0
    3.5823   -4.9102    0.0000 C   0  0  0  0  0  0  0  0  0  0  0  0
  1  2  1  0  0  0  0 
  1  5  1  0  0  0  0 
  2  7  1  0  0  0  0 
  3 18  1  0  0  0  0 
  3 24  1  0  0  0  0 
  4 15  1  0  0  0  0 
  4 18  1  0  0  0  0 
  5 13  1  0  0  0  0 
  5 14  1  0  0  0  0 
  6  9  1  0  0  0  0 
  6 10  1  0  0  0  0 
  6 12  1  0  0  0  0 
  7  8  1  0  0  0  0 
  7 11  1  0  0  0  0 
  8  9  1  0  0  0  0 
 10 11  1  0  0  0  0 
 12 15  1  0  0  0  0 
 13 19  1  0  0  0  0 
 14 20  1  0  0  0  0 
 15 24  1  0  0  0  0 
 16 18  1  0  0  0  0 
 16 22  1  0  0  0  0 
 16 23  1  0  0  0  0 
 17 19  1  0  0  0  0 
 17 20  1  0  0  0  0 
 21 25  1  0  0  0  0 
 21 26  1  0  0  0  0 
 22 25  1  0  0  0  0 
 23 26  1  0  0  0  0 
M  ISO  1   1  32
M  ISO  1   2  16
M  ISO  1   3  16
M  END
> <cdk:Title>
null

> <cdk:Remark>
null

> <PUBCHEM_COMPOUND_CID>
5733434

> <AMMOLITE_STRUCTURE_ID>
5733434_STRUCT

$$$$
