
  CDK     1217142145

 20 22  0  0  0  0  0  0  0  0999 V2000
    3.7111    1.8156    0.0000 N   0  0  0  0  0  0  0  0  0  0  0  0
    3.8680   -1.8857    0.0000 N   0  0  0  0  0  0  0  0  0  0  0  0
    3.7635   -2.8802    0.0000 C   0  0  0  0  0  0  0  0  0  0  0  0
    3.1249   -1.2166    0.0000 C   0  0  0  0  0  0  0  0  0  0  0  0
    4.8462   -1.6778    0.0000 C   0  0  0  0  0  0  0  0  0  0  0  0
    4.6771   -3.2870    0.0000 C   0  0  0  0  0  0  0  0  0  0  0  0
    2.8975   -3.3802    0.0000 C   0  0  0  0  0  0  0  0  0  0  0  0
    3.3328   -0.2384    0.0000 C   0  0  0  0  0  0  0  0  0  0  0  0
    5.3462   -2.5438    0.0000 C   0  0  0  0  0  0  0  0  0  0  0  0
    2.8975   -4.3802    0.0000 C   0  0  0  0  0  0  0  0  0  0  0  0
    2.7976    1.4088    0.0000 C   0  0  0  0  0  0  0  0  0  0  0  0
    2.5896    0.4307    0.0000 C   0  0  0  0  0  0  0  0  0  0  0  0
    3.6066    2.8101    0.0000 C   0  0  0  0  0  0  0  0  0  0  0  0
    3.7635   -4.8802    0.0000 C   0  0  0  0  0  0  0  0  0  0  0  0
    2.0314   -4.8802    0.0000 C   0  0  0  0  0  0  0  0  0  0  0  0
    2.1284    2.1520    0.0000 C   0  0  0  0  0  0  0  0  0  0  0  0
    2.6284    3.0180    0.0000 C   0  0  0  0  0  0  0  0  0  0  0  0
    2.8975   -6.3802    0.0000 C   0  0  0  0  0  0  0  0  0  0  0  0
    3.7635   -5.8802    0.0000 C   0  0  0  0  0  0  0  0  0  0  0  0
    2.0314   -5.8802    0.0000 C   0  0  0  0  0  0  0  0  0  0  0  0
  1 11  1  0  0  0  0 
  1 13  1  0  0  0  0 
  2  3  1  0  0  0  0 
  2  4  1  0  0  0  0 
  2  5  1  0  0  0  0 
  3  6  1  0  0  0  0 
  3  7  1  0  0  0  0 
  4  8  1  0  0  0  0 
  5  9  1  0  0  0  0 
  6  9  1  0  0  0  0 
  7 10  1  0  0  0  0 
  8 12  1  0  0  0  0 
 10 14  1  0  0  0  0 
 10 15  1  0  0  0  0 
 11 12  1  0  0  0  0 
 11 16  1  0  0  0  0 
 13 17  1  0  0  0  0 
 14 19  1  0  0  0  0 
 15 20  1  0  0  0  0 
 16 17  1  0  0  0  0 
 18 19  1  0  0  0  0 
 18 20  1  0  0  0  0 
M  ISO  1   1  32
M  END
> <cdk:Title>
null

> <cdk:Remark>
null

> <PUBCHEM_COMPOUND_CID>
59792844

> <AMMOLITE_STRUCTURE_ID>
59792844_STRUCT

$$$$
