
  CDK     1217142145

 21 24  0  0  0  0  0  0  0  0999 V2000
   12.1521   -1.9173    0.0000 N   0  0  0  0  0  0  0  0  0  0  0  0
    6.1591   -0.9490    0.0000 N   0  0  0  0  0  0  0  0  0  0  0  0
    6.8283   -0.2059    0.0000 C   0  0  3  0  0  0  0  0  0  0  0  0
    7.7418   -0.6126    0.0000 C   0  0  0  0  0  0  0  0  0  0  0  0
    6.6204    0.7723    0.0000 C   0  0  0  0  0  0  0  0  0  0  0  0
    6.6591   -1.8150    0.0000 C   0  0  0  0  0  0  0  0  0  0  0  0
    7.6373   -1.6071    0.0000 C   0  0  0  0  0  0  0  0  0  0  0  0
    8.6078   -0.1126    0.0000 C   0  0  0  0  0  0  0  0  0  0  0  0
   12.1521   -0.3079    0.0000 C   0  0  0  0  0  0  0  0  0  0  0  0
   11.2059   -0.6126    0.0000 C   0  0  0  0  0  0  0  0  0  0  0  0
    9.4739   -0.6126    0.0000 C   0  0  0  0  0  0  0  0  0  0  0  0
   12.7357   -1.1126    0.0000 C   0  0  3  0  0  0  0  0  0  0  0  0
   11.2059   -1.6126    0.0000 C   0  0  0  0  0  0  0  0  0  0  0  0
   10.3399   -0.1126    0.0000 C   0  0  0  0  0  0  0  0  0  0  0  0
    5.6693    1.0813    0.0000 C   0  0  0  0  0  0  0  0  0  0  0  0
    7.3635    1.4414    0.0000 C   0  0  0  0  0  0  0  0  0  0  0  0
    9.4739   -1.6126    0.0000 C   0  0  0  0  0  0  0  0  0  0  0  0
   10.3399   -2.1126    0.0000 C   0  0  0  0  0  0  0  0  0  0  0  0
    5.4614    2.0594    0.0000 C   0  0  0  0  0  0  0  0  0  0  0  0
    7.1556    2.4196    0.0000 C   0  0  0  0  0  0  0  0  0  0  0  0
    6.2045    2.7286    0.0000 C   0  0  0  0  0  0  0  0  0  0  0  0
  1 12  1  0  0  0  0 
  1 13  1  0  0  0  0 
  2  3  1  0  0  0  0 
  2  6  1  0  0  0  0 
  3  4  1  0  0  0  0 
  3  5  1  0  0  0  0 
  4  7  1  0  0  0  0 
  4  8  1  0  0  0  0 
  5 15  1  0  0  0  0 
  5 16  1  0  0  0  0 
  6  7  1  0  0  0  0 
  8 11  1  0  0  0  0 
  9 10  1  0  0  0  0 
  9 12  1  0  0  0  0 
 10 13  1  0  0  0  0 
 10 14  1  0  0  0  0 
 11 14  1  0  0  0  0 
 11 17  1  0  0  0  0 
 13 18  1  0  0  0  0 
 15 19  1  0  0  0  0 
 16 20  1  0  0  0  0 
 17 18  1  0  0  0  0 
 19 21  1  0  0  0  0 
 20 21  1  0  0  0  0 
M  ISO  1   1  16
M  END
> <cdk:Title>
null

> <cdk:Remark>
null

> <PUBCHEM_COMPOUND_CID>
6133607

> <AMMOLITE_STRUCTURE_ID>
6133607_STRUCT

$$$$
