
  CDK     1217142145

 17 18  0  0  0  0  0  0  0  0999 V2000
    4.6551    4.5684    0.0000 N   0  0  0  0  0  0  0  0  0  0  0  0
    4.5981    2.4806    0.0000 N   0  0  3  0  0  0  0  0  0  0  0  0
    2.8660   -0.5194    0.0000 N   0  0  0  0  0  0  0  0  0  0  0  0
    5.4641    3.9806    0.0000 C   0  0  3  0  0  0  0  0  0  0  0  0
    6.2731    4.5684    0.0000 C   0  0  0  0  0  0  0  0  0  0  0  0
    5.4641    2.9806    0.0000 C   0  0  0  0  0  0  0  0  0  0  0  0
    5.9641    5.5194    0.0000 C   0  0  0  0  0  0  0  0  0  0  0  0
    4.9641    5.5194    0.0000 C   0  0  0  0  0  0  0  0  0  0  0  0
    4.5981    1.4806    0.0000 C   0  0  0  0  0  0  0  0  0  0  0  0
    3.7320    0.9806    0.0000 C   0  0  0  0  0  0  0  0  0  0  0  0
    3.7320   -0.0194    0.0000 C   0  0  0  0  0  0  0  0  0  0  0  0
    2.8660   -1.5194    0.0000 C   0  0  0  0  0  0  0  0  0  0  0  0
    2.0000   -2.0194    0.0000 C   0  0  0  0  0  0  0  0  0  0  0  0
    3.7320   -2.0194    0.0000 C   0  0  0  0  0  0  0  0  0  0  0  0
    2.0000   -3.0194    0.0000 C   0  0  0  0  0  0  0  0  0  0  0  0
    3.7320   -3.0194    0.0000 C   0  0  0  0  0  0  0  0  0  0  0  0
    2.8660   -3.5194    0.0000 C   0  0  0  0  0  0  0  0  0  0  0  0
  1  4  1  0  0  0  0 
  1  8  1  0  0  0  0 
  2  6  1  0  0  0  0 
  2  9  1  0  0  0  0 
  3 11  1  0  0  0  0 
  3 12  1  0  0  0  0 
  4  5  1  0  0  0  0 
  4  6  1  0  0  0  0 
  5  7  1  0  0  0  0 
  7  8  1  0  0  0  0 
  9 10  1  0  0  0  0 
 10 11  1  0  0  0  0 
 12 13  1  0  0  0  0 
 12 14  1  0  0  0  0 
 13 15  1  0  0  0  0 
 14 16  1  0  0  0  0 
 15 17  1  0  0  0  0 
 16 17  1  0  0  0  0 
M  ISO  1   1  16
M  END
> <cdk:Title>
null

> <cdk:Remark>
null

> <PUBCHEM_COMPOUND_CID>
61431783

> <AMMOLITE_STRUCTURE_ID>
61431783_STRUCT

$$$$
