
  CDK     1217142145

 13 14  0  0  0  0  0  0  0  0999 V2000
    2.8660    0.4206    0.0000 N   0  0  3  0  0  0  0  0  0  0  0  0
    3.2320    3.4594    0.0000 N   0  0  0  0  0  0  0  0  0  0  0  0
    2.8660   -2.5794    0.0000 N   0  0  0  0  0  0  0  0  0  0  0  0
    3.7320    1.9206    0.0000 C   0  0  3  0  0  0  0  0  0  0  0  0
    3.7320    0.9206    0.0000 C   0  0  0  0  0  0  0  0  0  0  0  0
    2.8660   -0.5794    0.0000 C   0  0  0  0  0  0  0  0  0  0  0  0
    2.7320    1.9206    0.0000 C   0  0  0  0  0  0  0  0  0  0  0  0
    4.0411    2.8716    0.0000 C   0  0  0  0  0  0  0  0  0  0  0  0
    2.0000   -1.0794    0.0000 C   0  0  0  0  0  0  0  0  0  0  0  0
    3.7320   -1.0794    0.0000 C   0  0  0  0  0  0  0  0  0  0  0  0
    2.4230    2.8716    0.0000 C   0  0  0  0  0  0  0  0  0  0  0  0
    2.0000   -2.0794    0.0000 C   0  0  0  0  0  0  0  0  0  0  0  0
    3.7320   -2.0794    0.0000 C   0  0  0  0  0  0  0  0  0  0  0  0
  1  5  1  0  0  0  0 
  1  6  1  0  0  0  0 
  2  8  1  0  0  0  0 
  2 11  1  0  0  0  0 
  3 12  1  0  0  0  0 
  3 13  1  0  0  0  0 
  4  5  1  0  0  0  0 
  4  7  1  0  0  0  0 
  4  8  1  0  0  0  0 
  6  9  1  0  0  0  0 
  6 10  1  0  0  0  0 
  7 11  1  0  0  0  0 
  9 12  1  0  0  0  0 
 10 13  1  0  0  0  0 
M  END
> <cdk:Title>
null

> <cdk:Remark>
null

> <PUBCHEM_COMPOUND_CID>
63143290

> <AMMOLITE_STRUCTURE_ID>
63143290_STRUCT

$$$$
