
  CDK     1217142145

 14 15  0  0  0  0  0  0  0  0999 V2000
    4.4487    1.8988    0.0000 N   0  0  0  0  0  0  0  0  0  0  0  0
    3.5827    2.3988    0.0000 C   0  0  0  0  0  0  0  0  0  0  0  0
    3.4782    3.3933    0.0000 C   0  0  0  0  0  0  0  0  0  0  0  0
    2.6691    1.9920    0.0000 C   0  0  0  0  0  0  0  0  0  0  0  0
    2.5000    3.6012    0.0000 C   0  0  0  0  0  0  0  0  0  0  0  0
    2.0000    2.7352    0.0000 C   0  0  0  0  0  0  0  0  0  0  0  0
    4.4487    0.8988    0.0000 C   0  0  0  0  0  0  0  0  0  0  0  0
    5.3147    0.3988    0.0000 C   0  0  3  0  0  0  0  0  0  0  0  0
    5.3147   -0.6012    0.0000 C   0  0  0  0  0  0  0  0  0  0  0  0
    6.1808   -1.1012    0.0000 C   0  0  0  0  0  0  0  0  0  0  0  0
    4.4487   -1.1012    0.0000 C   0  0  0  0  0  0  0  0  0  0  0  0
    6.1808   -2.1012    0.0000 C   0  0  0  0  0  0  0  0  0  0  0  0
    4.4487   -2.1012    0.0000 C   0  0  0  0  0  0  0  0  0  0  0  0
    5.3147   -2.6012    0.0000 C   0  0  0  0  0  0  0  0  0  0  0  0
  1  2  1  0  0  0  0 
  1  7  1  0  0  0  0 
  2  3  1  0  0  0  0 
  2  4  1  0  0  0  0 
  3  5  1  0  0  0  0 
  4  6  1  0  0  0  0 
  5  6  1  0  0  0  0 
  7  8  1  0  0  0  0 
  8  9  1  0  0  0  0 
  9 10  1  0  0  0  0 
  9 11  1  0  0  0  0 
 10 12  1  0  0  0  0 
 11 13  1  0  0  0  0 
 12 14  1  0  0  0  0 
 13 14  1  0  0  0  0 
M  ISO  1   1  32
M  END
> <cdk:Title>
null

> <cdk:Remark>
null

> <PUBCHEM_COMPOUND_CID>
65138931

> <AMMOLITE_STRUCTURE_ID>
65138931_STRUCT

$$$$

  CDK     1217142145

 14 15  0  0  0  0  0  0  0  0999 V2000
    4.7026    2.9365    0.0000 N   0  0  0  0  0  0  0  0  0  0  0  0
    3.7320    0.4420    0.0000 C   0  0  3  0  0  0  0  0  0  0  0  0
    2.8660   -0.0580    0.0000 C   0  0  0  0  0  0  0  0  0  0  0  0
    3.7320    1.4420    0.0000 C   0  0  0  0  0  0  0  0  0  0  0  0
    2.8660   -1.0580    0.0000 C   0  0  0  0  0  0  0  0  0  0  0  0
    4.5981    1.9420    0.0000 C   0  0  0  0  0  0  0  0  0  0  0  0
    2.0000   -1.5580    0.0000 C   0  0  0  0  0  0  0  0  0  0  0  0
    3.7320   -1.5580    0.0000 C   0  0  0  0  0  0  0  0  0  0  0  0
    5.5116    1.5353    0.0000 C   0  0  0  0  0  0  0  0  0  0  0  0
    2.8660   -3.0580    0.0000 C   0  0  0  0  0  0  0  0  0  0  0  0
    2.0000   -2.5580    0.0000 C   0  0  0  0  0  0  0  0  0  0  0  0
    3.7320   -2.5580    0.0000 C   0  0  0  0  0  0  0  0  0  0  0  0
    6.1808    2.2784    0.0000 C   0  0  0  0  0  0  0  0  0  0  0  0
    5.6808    3.1444    0.0000 C   0  0  0  0  0  0  0  0  0  0  0  0
  1  6  1  0  0  0  0 
  1 14  1  0  0  0  0 
  2  3  1  0  0  0  0 
  2  4  1  0  0  0  0 
  3  5  1  0  0  0  0 
  4  6  1  0  0  0  0 
  5  7  1  0  0  0  0 
  5  8  1  0  0  0  0 
  6  9  1  0  0  0  0 
  7 11  1  0  0  0  0 
  8 12  1  0  0  0  0 
  9 13  1  0  0  0  0 
 10 11  1  0  0  0  0 
 10 12  1  0  0  0  0 
 13 14  1  0  0  0  0 
M  ISO  1   1  32
M  END
> <cdk:Title>
null

> <cdk:Remark>
null

> <PUBCHEM_COMPOUND_CID>
66033918

> <AMMOLITE_STRUCTURE_ID>
66033918_STRUCT

$$$$
