
  CDK     1217142145

 14 15  0  0  0  0  0  0  0  0999 V2000
    2.8090    2.6030    0.0000 N   0  0  0  0  0  0  0  0  0  0  0  0
    7.0949   -0.6707    0.0000 N   0  0  0  0  0  0  0  0  0  0  0  0
    5.7281    1.5946    0.0000 N   0  0  0  0  0  0  0  0  0  0  0  0
    7.3890   -2.0540    0.0000 C   0  0  0  0  0  0  0  0  0  0  0  0
    7.9336   -1.2153    0.0000 C   0  0  0  0  0  0  0  0  0  0  0  0
    6.5503   -1.5093    0.0000 C   0  0  0  0  0  0  0  0  0  0  0  0
    6.8870    0.3075    0.0000 C   0  0  0  0  0  0  0  0  0  0  0  0
    5.9360    0.6165    0.0000 C   0  0  0  0  0  0  0  0  0  0  0  0
    4.7770    1.9037    0.0000 C   0  0  0  0  0  0  0  0  0  0  0  0
    4.5691    2.8818    0.0000 C   0  0  0  0  0  0  0  0  0  0  0  0
    3.6180    3.1908    0.0000 C   0  0  0  0  0  0  0  0  0  0  0  0
    3.3090    4.1419    0.0000 C   0  0  0  0  0  0  0  0  0  0  0  0
    2.3090    4.1419    0.0000 C   0  0  0  0  0  0  0  0  0  0  0  0
    2.0000    3.1908    0.0000 C   0  0  0  0  0  0  0  0  0  0  0  0
  1 11  1  0  0  0  0 
  1 14  1  0  0  0  0 
  2  5  1  0  0  0  0 
  2  6  1  0  0  0  0 
  2  7  1  0  0  0  0 
  3  8  1  0  0  0  0 
  3  9  1  0  0  0  0 
  4  5  1  0  0  0  0 
  4  6  1  0  0  0  0 
  7  8  1  0  0  0  0 
  9 10  1  0  0  0  0 
 10 11  1  0  0  0  0 
 11 12  1  0  0  0  0 
 12 13  1  0  0  0  0 
 13 14  1  0  0  0  0 
M  ISO  1   1  32
M  END
> <cdk:Title>
null

> <cdk:Remark>
null

> <PUBCHEM_COMPOUND_CID>
65943192

> <AMMOLITE_STRUCTURE_ID>
65943192_STRUCT

$$$$
