
  CDK     1217142145

 20 23  0  0  0  0  0  0  0  0999 V2000
    3.0878   -4.6307    0.0000 N   0  0  0  0  0  0  0  0  0  0  0  0
    3.5878    2.9081    0.0000 N   0  0  0  0  0  0  0  0  0  0  0  0
    3.0878   -2.6307    0.0000 N   0  0  3  0  0  0  0  0  0  0  0  0
    5.4836   -3.6307    0.0000 N   0  0  0  0  0  0  0  0  0  0  0  0
    3.0878    1.3693    0.0000 N   0  0  0  0  0  0  0  0  0  0  0  0
    3.9538   -3.1307    0.0000 C   0  0  3  0  0  0  0  0  0  0  0  0
    3.9538   -4.1307    0.0000 C   0  0  3  0  0  0  0  0  0  0  0  0
    4.9000   -2.8260    0.0000 C   0  0  0  0  0  0  0  0  0  0  0  0
    4.9000   -4.4354    0.0000 C   0  0  0  0  0  0  0  0  0  0  0  0
    2.2218   -3.1307    0.0000 C   0  0  0  0  0  0  0  0  0  0  0  0
    2.2218   -4.1307    0.0000 C   0  0  0  0  0  0  0  0  0  0  0  0
    3.0878   -1.6307    0.0000 C   0  0  0  0  0  0  0  0  0  0  0  0
    3.9538   -1.1307    0.0000 C   0  0  0  0  0  0  0  0  0  0  0  0
    2.2218   -1.1307    0.0000 C   0  0  0  0  0  0  0  0  0  0  0  0
    3.0878    0.3693    0.0000 C   0  0  0  0  0  0  0  0  0  0  0  0
    3.9538   -0.1307    0.0000 C   0  0  0  0  0  0  0  0  0  0  0  0
    2.2218   -0.1307    0.0000 C   0  0  0  0  0  0  0  0  0  0  0  0
    2.2788    1.9571    0.0000 C   0  0  0  0  0  0  0  0  0  0  0  0
    2.5878    2.9081    0.0000 C   0  0  3  0  0  0  0  0  0  0  0  0
    3.8968    1.9571    0.0000 C   0  0  0  0  0  0  0  0  0  0  0  0
  1  7  1  0  0  0  0 
  1 11  1  0  0  0  0 
  2 19  1  0  0  0  0 
  2 20  1  0  0  0  0 
  3  6  1  0  0  0  0 
  3 10  1  0  0  0  0 
  3 12  1  0  0  0  0 
  4  8  1  0  0  0  0 
  4  9  1  0  0  0  0 
  5 15  1  0  0  0  0 
  5 18  1  0  0  0  0 
  5 20  1  0  0  0  0 
  6  7  1  0  0  0  0 
  6  8  1  0  0  0  0 
  7  9  1  0  0  0  0 
 10 11  1  0  0  0  0 
 12 13  1  0  0  0  0 
 12 14  1  0  0  0  0 
 13 16  1  0  0  0  0 
 14 17  1  0  0  0  0 
 15 16  1  0  0  0  0 
 15 17  1  0  0  0  0 
 18 19  1  0  0  0  0 
M  ISO  1   1  16
M  ISO  1   2  16
M  END
> <cdk:Title>
null

> <cdk:Remark>
null

> <PUBCHEM_COMPOUND_CID>
69067313

> <AMMOLITE_STRUCTURE_ID>
69067313_STRUCT

$$$$
