
  CDK     1217142145

 17 20  0  0  0  0  0  0  0  0999 V2000
    6.7354   -2.6980    0.0000 N   0  0  0  0  0  0  0  0  0  0  0  0
    3.3803    1.8856    0.0000 C   0  0  2  0  0  0  0  0  0  0  0  0
    3.6727    0.9292    0.0000 C   0  0  1  0  0  0  0  0  0  0  0  0
    4.0822    2.8933    0.0000 C   0  0  0  0  0  0  0  0  0  0  0  0
    2.0000    1.3282    0.0000 C   0  0  0  0  0  0  0  0  0  0  0  0
    2.2924    0.3719    0.0000 C   0  0  0  0  0  0  0  0  0  0  0  0
    5.4232    1.6456    0.0000 C   0  0  0  0  0  0  0  0  0  0  0  0
    4.9232    0.1067    0.0000 C   0  0  0  0  0  0  0  0  0  0  0  0
    5.7322    0.6945    0.0000 C   0  0  0  0  0  0  0  0  0  0  0  0
    4.9232   -0.8933    0.0000 C   0  0  0  0  0  0  0  0  0  0  0  0
    5.7892   -1.3933    0.0000 C   0  0  0  0  0  0  0  0  0  0  0  0
    4.0572   -1.3933    0.0000 C   0  0  0  0  0  0  0  0  0  0  0  0
    5.7892   -2.3933    0.0000 C   0  0  0  0  0  0  0  0  0  0  0  0
    6.7354   -1.0885    0.0000 C   0  0  0  0  0  0  0  0  0  0  0  0
    4.0572   -2.3933    0.0000 C   0  0  0  0  0  0  0  0  0  0  0  0
    4.9232   -2.8933    0.0000 C   0  0  0  0  0  0  0  0  0  0  0  0
    7.3190   -1.8933    0.0000 C   0  0  0  0  0  0  0  0  0  0  0  0
  1 13  1  0  0  0  0 
  1 17  1  0  0  0  0 
  2  4  1  0  0  0  0 
  2  5  1  0  0  0  0 
  2  7  1  0  0  0  0 
  3  4  1  0  0  0  0 
  3  6  1  0  0  0  0 
  3  8  1  0  0  0  0 
  5  6  1  0  0  0  0 
  7  9  1  0  0  0  0 
  8  9  1  0  0  0  0 
  8 10  1  0  0  0  0 
 10 11  1  0  0  0  0 
 10 12  1  0  0  0  0 
 11 13  1  0  0  0  0 
 11 14  1  0  0  0  0 
 12 15  1  0  0  0  0 
 13 16  1  0  0  0  0 
 14 17  1  0  0  0  0 
 15 16  1  0  0  0  0 
M  ISO  1   1  32
M  END
> <cdk:Title>
null

> <cdk:Remark>
null

> <PUBCHEM_COMPOUND_CID>
69874902

> <AMMOLITE_STRUCTURE_ID>
69874902_STRUCT

$$$$
