
  CDK     1217142145

 25 29  0  0  0  0  0  0  0  0999 V2000
    5.9109    0.6624    0.0000 N   0  0  0  0  0  0  0  0  0  0  0  0
    4.1790    0.6824    0.0000 N   0  0  0  0  0  0  0  0  0  0  0  0
    4.9933   -1.8930    0.0000 C   0  0  2  0  0  0  0  0  0  0  0  0
    4.9933   -0.8514    0.0000 C   0  0  0  0  0  0  0  0  0  0  0  0
    5.8994   -0.3376    0.0000 C   0  0  1  0  0  0  0  0  0  0  0  0
    5.8994   -2.4069    0.0000 C   0  0  0  0  0  0  0  0  0  0  0  0
    6.7933   -0.8722    0.0000 C   0  0  0  0  0  0  0  0  0  0  0  0
    6.7933   -1.8722    0.0000 C   0  0  0  0  0  0  0  0  0  0  0  0
    5.0508    1.1724    0.0000 C   0  0  2  0  0  0  0  0  0  0  0  0
    4.2021    2.6823    0.0000 C   0  0  2  0  0  0  0  0  0  0  0  0
    5.0623    2.1723    0.0000 C   0  0  0  0  0  0  0  0  0  0  0  0
    3.3304    2.1923    0.0000 C   0  0  1  0  0  0  0  0  0  0  0  0
    3.3188    1.1924    0.0000 C   0  0  3  0  0  0  0  0  0  0  0  0
    7.6593   -0.3722    0.0000 C   0  0  0  0  0  0  0  0  0  0  0  0
    7.6593   -2.3722    0.0000 C   0  0  0  0  0  0  0  0  0  0  0  0
    8.5254   -0.8722    0.0000 C   0  0  0  0  0  0  0  0  0  0  0  0
    8.5254   -1.8722    0.0000 C   0  0  0  0  0  0  0  0  0  0  0  0
    9.4193   -0.3376    0.0000 C   0  0  0  0  0  0  0  0  0  0  0  0
    9.4193   -2.4069    0.0000 C   0  0  0  0  0  0  0  0  0  0  0  0
   10.3254   -0.8514    0.0000 C   0  0  0  0  0  0  0  0  0  0  0  0
   10.3254   -1.8930    0.0000 C   0  0  0  0  0  0  0  0  0  0  0  0
   11.2565   -0.2945    0.0000 C   0  0  0  0  0  0  0  0  0  0  0  0
   11.2565   -2.4500    0.0000 C   0  0  0  0  0  0  0  0  0  0  0  0
   12.2003   -0.8297    0.0000 C   0  0  0  0  0  0  0  0  0  0  0  0
   12.2003   -1.9147    0.0000 C   0  0  0  0  0  0  0  0  0  0  0  0
  5  1  1  6  0  0  0 
  9  1  1  6  0  0  0 
  2  9  1  0  0  0  0 
  2 13  1  0  0  0  0 
  3  4  1  0  0  0  0 
  3  6  1  0  0  0  0 
  4  5  1  0  0  0  0 
  5  7  1  0  0  0  0 
  6  8  1  0  0  0  0 
  7  8  1  0  0  0  0 
  7 14  1  0  0  0  0 
  8 15  1  0  0  0  0 
  9 11  1  0  0  0  0 
 10 11  1  0  0  0  0 
 10 12  1  0  0  0  0 
 12 13  1  0  0  0  0 
 14 16  1  0  0  0  0 
 15 17  1  0  0  0  0 
 16 17  1  0  0  0  0 
 16 18  1  0  0  0  0 
 17 19  1  0  0  0  0 
 18 20  1  0  0  0  0 
 19 21  1  0  0  0  0 
 20 21  1  0  0  0  0 
 20 22  1  0  0  0  0 
 21 23  1  0  0  0  0 
 22 24  1  0  0  0  0 
 23 25  1  0  0  0  0 
 24 25  1  0  0  0  0 
M  ISO  1   1  16
M  ISO  1   2  16
M  END
> <cdk:Title>
null

> <cdk:Remark>
null

> <PUBCHEM_COMPOUND_CID>
70668172

> <AMMOLITE_STRUCTURE_ID>
70668172_STRUCT

$$$$
