
  CDK     1217142145

 40 44  0  0  0  0  0  0  0  0999 V2000
   11.7318   -4.5765    0.0000 N   0  0  0  0  0  0  0  0  0  0  0  0
    8.6118    1.1911    0.0000 N   0  0  0  0  0  0  0  0  0  0  0  0
    8.3862   -1.4450    0.0000 N   0  0  0  0  0  0  0  0  0  0  0  0
    6.7106    3.0752    0.0000 N   0  0  0  0  0  0  0  0  0  0  0  0
   12.2926    2.8935    0.0000 N   0  0  0  0  0  0  0  0  0  0  0  0
    3.9081    5.1114    0.0000 N   0  0  0  0  0  0  0  0  0  0  0  0
    8.5672   -3.1676    0.0000 N   0  0  0  0  0  0  0  0  0  0  0  0
   10.7373   -4.6811    0.0000 N   0  0  3  0  0  0  0  0  0  0  0  0
    9.6945    2.3935    0.0000 C   0  0  2  0  0  0  0  0  0  0  0  0
    8.1118    2.0571    0.0000 C   0  0  1  0  0  0  0  0  0  0  0  0
    8.7810    2.8003    0.0000 C   0  0  0  0  0  0  0  0  0  0  0  0
    9.5900    1.3990    0.0000 C   0  0  0  0  0  0  0  0  0  0  0  0
   10.5605    2.8935    0.0000 C   0  0  0  0  0  0  0  0  0  0  0  0
    8.7929   -0.5315    0.0000 C   0  0  2  0  0  0  0  0  0  0  0  0
    8.2051    0.2776    0.0000 C   0  0  0  0  0  0  0  0  0  0  0  0
    7.1173    2.1617    0.0000 C   0  0  0  0  0  0  0  0  0  0  0  0
   11.4266    2.3935    0.0000 C   0  0  0  0  0  0  0  0  0  0  0  0
    2.9136    5.2159    0.0000 C   0  0  0  0  0  0  0  0  0  0  0  0
    2.1045    5.8037    0.0000 C   0  0  0  0  0  0  0  0  0  0  0  0
    2.0000    4.8092    0.0000 C   0  0  0  0  0  0  0  0  0  0  0  0
    5.7161    3.1797    0.0000 C   0  0  3  0  0  0  0  0  0  0  0  0
    9.1550   -3.9766    0.0000 C   0  0  1  0  0  0  0  0  0  0  0  0
   12.2926    3.8935    0.0000 C   0  0  0  0  0  0  0  0  0  0  0  0
   13.1586    2.3935    0.0000 C   0  0  0  0  0  0  0  0  0  0  0  0
    8.9739   -2.2540    0.0000 C   0  0  0  0  0  0  0  0  0  0  0  0
   13.1586    4.3935    0.0000 C   0  0  0  0  0  0  0  0  0  0  0  0
    5.3093    4.0933    0.0000 C   0  0  0  0  0  0  0  0  0  0  0  0
   10.1495   -3.8720    0.0000 C   0  0  0  0  0  0  0  0  0  0  0  0
   14.0246    2.8935    0.0000 C   0  0  0  0  0  0  0  0  0  0  0  0
    4.3148    4.1978    0.0000 C   0  0  0  0  0  0  0  0  0  0  0  0
   14.0246    3.8935    0.0000 C   0  0  0  0  0  0  0  0  0  0  0  0
   14.9186    2.3589    0.0000 C   0  0  0  0  0  0  0  0  0  0  0  0
   14.9186    4.4282    0.0000 C   0  0  0  0  0  0  0  0  0  0  0  0
   15.8247    2.8727    0.0000 C   0  0  0  0  0  0  0  0  0  0  0  0
   15.8247    3.9144    0.0000 C   0  0  0  0  0  0  0  0  0  0  0  0
   12.7263   -4.4720    0.0000 C   0  0  0  0  0  0  0  0  0  0  0  0
   13.2263   -3.6060    0.0000 C   0  0  0  0  0  0  0  0  0  0  0  0
   13.3955   -5.2152    0.0000 C   0  0  0  0  0  0  0  0  0  0  0  0
   14.2045   -3.8139    0.0000 C   0  0  0  0  0  0  0  0  0  0  0  0
   14.3090   -4.8084    0.0000 C   0  0  0  0  0  0  0  0  0  0  0  0
  1  8  1  0  0  0  0 
  1 36  1  0  0  0  0 
  2 10  1  0  0  0  0 
  2 12  1  0  0  0  0 
  2 15  1  0  0  0  0 
 14  3  1  6  0  0  0 
  3 25  1  0  0  0  0 
  4 16  1  0  0  0  0 
  4 21  1  0  0  0  0 
  5 17  1  0  0  0  0 
  5 23  1  0  0  0  0 
  5 24  1  0  0  0  0 
  6 18  1  0  0  0  0 
  6 30  1  0  0  0  0 
 22  7  1  6  0  0  0 
  7 25  1  0  0  0  0 
  8 28  1  0  0  0  0 
  9 11  1  0  0  0  0 
  9 12  1  0  0  0  0 
  9 13  1  1  0  0  0 
 10 11  1  0  0  0  0 
 10 16  1  6  0  0  0 
 13 17  1  0  0  0  0 
 14 15  1  0  0  0  0 
 18 19  1  0  0  0  0 
 18 20  1  0  0  0  0 
 19 20  1  0  0  0  0 
 21 27  1  0  0  0  0 
 22 28  1  0  0  0  0 
 23 26  1  0  0  0  0 
 24 29  1  0  0  0  0 
 26 31  1  0  0  0  0 
 27 30  1  0  0  0  0 
 29 31  1  0  0  0  0 
 29 32  1  0  0  0  0 
 31 33  1  0  0  0  0 
 32 34  1  0  0  0  0 
 33 35  1  0  0  0  0 
 34 35  1  0  0  0  0 
 36 37  1  0  0  0  0 
 36 38  1  0  0  0  0 
 37 39  1  0  0  0  0 
 38 40  1  0  0  0  0 
 39 40  1  0  0  0  0 
M  ISO  1   1  32
M  END
> <cdk:Title>
null

> <cdk:Remark>
null

> <PUBCHEM_COMPOUND_CID>
71211445

> <AMMOLITE_STRUCTURE_ID>
71211445_STRUCT

$$$$
