
  CDK     1217142145

 20 23  0  0  0  0  0  0  0  0999 V2000
    9.0115   -1.5446    0.0000 N   0  0  0  0  0  0  0  0  0  0  0  0
    6.5306   -2.3536    0.0000 N   0  0  0  0  0  0  0  0  0  0  0  0
    6.5306   -0.7355    0.0000 N   0  0  0  0  0  0  0  0  0  0  0  0
    4.9428   -1.5446    0.0000 N   0  0  0  0  0  0  0  0  0  0  0  0
    7.4817   -1.0446    0.0000 C   0  0  2  0  0  0  0  0  0  0  0  0
    7.4817   -2.0446    0.0000 C   0  0  1  0  0  0  0  0  0  0  0  0
    8.4279   -0.7398    0.0000 C   0  0  0  0  0  0  0  0  0  0  0  0
    8.4279   -2.3493    0.0000 C   0  0  0  0  0  0  0  0  0  0  0  0
    5.9428   -1.5446    0.0000 C   0  0  0  0  0  0  0  0  0  0  0  0
    3.4428   -2.4106    0.0000 C   0  0  0  0  0  0  0  0  0  0  0  0
    2.5768   -1.9106    0.0000 C   0  0  0  0  0  0  0  0  0  0  0  0
    2.5768   -2.9106    0.0000 C   0  0  0  0  0  0  0  0  0  0  0  0
    6.2216    0.2155    0.0000 C   0  0  0  0  0  0  0  0  0  0  0  0
    4.4428   -2.4106    0.0000 C   0  0  0  0  0  0  0  0  0  0  0  0
    5.2435    0.4234    0.0000 C   0  0  0  0  0  0  0  0  0  0  0  0
    4.9344    1.3745    0.0000 C   0  0  0  0  0  0  0  0  0  0  0  0
    4.5743   -0.3197    0.0000 C   0  0  0  0  0  0  0  0  0  0  0  0
    3.9563    1.5824    0.0000 C   0  0  0  0  0  0  0  0  0  0  0  0
    3.5962   -0.1118    0.0000 C   0  0  0  0  0  0  0  0  0  0  0  0
    3.2872    0.8393    0.0000 C   0  0  0  0  0  0  0  0  0  0  0  0
  1  7  1  0  0  0  0 
  1  8  1  0  0  0  0 
  2  6  1  0  0  0  0 
  2  9  1  0  0  0  0 
  3  5  1  0  0  0  0 
  3  9  1  0  0  0  0 
  3 13  1  0  0  0  0 
  4  9  1  0  0  0  0 
  4 14  1  0  0  0  0 
  5  6  1  0  0  0  0 
  5  7  1  0  0  0  0 
  6  8  1  0  0  0  0 
 10 11  1  0  0  0  0 
 10 12  1  0  0  0  0 
 10 14  1  0  0  0  0 
 11 12  1  0  0  0  0 
 13 15  1  0  0  0  0 
 15 16  1  0  0  0  0 
 15 17  1  0  0  0  0 
 16 18  1  0  0  0  0 
 17 19  1  0  0  0  0 
 18 20  1  0  0  0  0 
 19 20  1  0  0  0  0 
M  ISO  1   1  32
M  ISO  1   2  32
M  END
> <cdk:Title>
null

> <cdk:Remark>
null

> <PUBCHEM_COMPOUND_CID>
7582516

> <AMMOLITE_STRUCTURE_ID>
7582516_STRUCT

$$$$
