
  CDK     1217142145

 23 25  0  0  0  0  0  0  0  0999 V2000
    7.0255   -1.6012    0.0000 N   0  0  0  0  0  0  0  0  0  0  0  0
    5.2460   -1.5079    0.0000 N   0  0  0  0  0  0  0  0  0  0  0  0
   14.0013    1.4921    0.0000 N   0  0  0  0  0  0  0  0  0  0  0  0
   12.2217    0.3988    0.0000 N   0  0  0  0  0  0  0  0  0  0  0  0
    9.6236   -1.1012    0.0000 N   0  0  0  0  0  0  0  0  0  0  0  0
    5.0768    0.1012    0.0000 N   0  0  0  0  0  0  0  0  0  0  0  0
    6.0550   -0.1067    0.0000 N   0  0  0  0  0  0  0  0  0  0  0  0
   11.3557   -1.1012    0.0000 C   0  0  0  0  0  0  0  0  0  0  0  0
   10.4896   -1.6012    0.0000 C   0  0  0  0  0  0  0  0  0  0  0  0
   12.2217    1.3988    0.0000 C   0  0  0  0  0  0  0  0  0  0  0  0
   11.3557   -0.1012    0.0000 C   0  0  0  0  0  0  0  0  0  0  0  0
   12.2217   -1.6012    0.0000 C   0  0  0  0  0  0  0  0  0  0  0  0
   10.4896   -2.6012    0.0000 C   0  0  0  0  0  0  0  0  0  0  0  0
   13.0877    1.8988    0.0000 C   0  0  0  0  0  0  0  0  0  0  0  0
   12.2217   -2.6012    0.0000 C   0  0  0  0  0  0  0  0  0  0  0  0
   11.3557   -3.1012    0.0000 C   0  0  0  0  0  0  0  0  0  0  0  0
    8.7576   -1.6012    0.0000 C   0  0  0  0  0  0  0  0  0  0  0  0
   13.1922    2.8933    0.0000 C   0  0  0  0  0  0  0  0  0  0  0  0
    7.8916   -1.1012    0.0000 C   0  0  0  0  0  0  0  0  0  0  0  0
   14.1704    3.1012    0.0000 C   0  0  0  0  0  0  0  0  0  0  0  0
   14.6704    2.2352    0.0000 C   0  0  0  0  0  0  0  0  0  0  0  0
    4.5768   -0.7648    0.0000 C   0  0  0  0  0  0  0  0  0  0  0  0
    6.1595   -1.1012    0.0000 C   0  0  0  0  0  0  0  0  0  0  0  0
  1 19  1  0  0  0  0 
  1 23  1  0  0  0  0 
  2 22  1  0  0  0  0 
  2 23  1  0  0  0  0 
  3 14  1  0  0  0  0 
  3 21  1  0  0  0  0 
  4 10  1  0  0  0  0 
  4 11  1  0  0  0  0 
  5  9  1  0  0  0  0 
  5 17  1  0  0  0  0 
  6  7  1  0  0  0  0 
  6 22  1  0  0  0  0 
  7 23  1  0  0  0  0 
  8  9  1  0  0  0  0 
  8 11  1  0  0  0  0 
  8 12  1  0  0  0  0 
  9 13  1  0  0  0  0 
 10 14  1  0  0  0  0 
 12 15  1  0  0  0  0 
 13 16  1  0  0  0  0 
 14 18  1  0  0  0  0 
 15 16  1  0  0  0  0 
 17 19  1  0  0  0  0 
 18 20  1  0  0  0  0 
 20 21  1  0  0  0  0 
M  ISO  1   1  32
M  ISO  1   2  32
M  ISO  1   3  16
M  END
> <cdk:Title>
null

> <cdk:Remark>
null

> <PUBCHEM_COMPOUND_CID>
8351491

> <AMMOLITE_STRUCTURE_ID>
8351491_STRUCT

$$$$
