
  CDK     1217142145

 18 20  0  0  0  0  0  0  0  0999 V2000
    7.2559   -1.4615    0.0000 N   0  0  0  0  0  0  0  0  0  0  0  0
    5.6681   -0.6525    0.0000 N   0  0  0  0  0  0  0  0  0  0  0  0
    9.2559    2.2705    0.0000 N   0  0  0  0  0  0  0  0  0  0  0  0
    9.2559    0.2705    0.0000 N   0  0  0  0  0  0  0  0  0  0  0  0
    3.9081   -0.3737    0.0000 N   0  0  0  0  0  0  0  0  0  0  0  0
    4.7171   -1.9615    0.0000 N   0  0  0  0  0  0  0  0  0  0  0  0
    5.6681   -2.2705    0.0000 N   0  0  0  0  0  0  0  0  0  0  0  0
    2.9945   -0.7805    0.0000 C   0  0  0  0  0  0  0  0  0  0  0  0
    2.0000   -0.6759    0.0000 C   0  0  0  0  0  0  0  0  0  0  0  0
    2.4067   -1.5895    0.0000 C   0  0  0  0  0  0  0  0  0  0  0  0
   10.1220    0.7705    0.0000 C   0  0  0  0  0  0  0  0  0  0  0  0
    8.3899    0.7705    0.0000 C   0  0  0  0  0  0  0  0  0  0  0  0
    8.7559   -0.5955    0.0000 C   0  0  0  0  0  0  0  0  0  0  0  0
   10.1220    1.7705    0.0000 C   0  0  0  0  0  0  0  0  0  0  0  0
    8.3899    1.7705    0.0000 C   0  0  0  0  0  0  0  0  0  0  0  0
    7.7559   -0.5955    0.0000 C   0  0  0  0  0  0  0  0  0  0  0  0
    4.7171   -0.9615    0.0000 C   0  0  0  0  0  0  0  0  0  0  0  0
    6.2559   -1.4615    0.0000 C   0  0  0  0  0  0  0  0  0  0  0  0
  1 16  1  0  0  0  0 
  1 18  1  0  0  0  0 
  2 17  1  0  0  0  0 
  2 18  1  0  0  0  0 
  3 14  1  0  0  0  0 
  3 15  1  0  0  0  0 
  4 11  1  0  0  0  0 
  4 12  1  0  0  0  0 
  4 13  1  0  0  0  0 
  5  8  1  0  0  0  0 
  5 17  1  0  0  0  0 
  6  7  1  0  0  0  0 
  6 17  1  0  0  0  0 
  7 18  1  0  0  0  0 
  8  9  1  0  0  0  0 
  8 10  1  0  0  0  0 
  9 10  1  0  0  0  0 
 11 14  1  0  0  0  0 
 12 15  1  0  0  0  0 
 13 16  1  0  0  0  0 
M  CHG  1   4   1
M  ISO  1   1  32
M  ISO  1   2  32
M  ISO  1   3  16
M  END
> <cdk:Title>
null

> <cdk:Remark>
null

> <PUBCHEM_COMPOUND_CID>
9378350

> <AMMOLITE_STRUCTURE_ID>
9378350_STRUCT

$$$$
