44495362
  CDK     0202151413

 61 63  0  0  0  0  0  0  0  0999 V2000
    5.5208    0.6449    0.0000 O   0  0  0  0  0  0  0  0  0  0  0  0
    2.2904    1.5688    0.0000 O   0  0  0  0  0  0  0  0  0  0  0  0
    2.5176    4.8728    0.0000 O   0  0  0  0  0  0  0  0  0  0  0  0
    5.0327   -2.7480    0.0000 O   0  0  0  0  0  0  0  0  0  0  0  0
    3.6730    2.4927    0.0000 N   0  0  0  0  0  0  0  0  0  0  0  0
    7.4035    2.4348    0.0000 N   0  0  0  0  0  0  0  0  0  0  0  0
    5.6770   -1.1402    0.0000 N   0  0  0  0  0  0  0  0  0  0  0  0
    6.7472   -2.5021    0.0000 N   0  0  0  0  0  0  0  0  0  0  0  0
    5.5208    2.4927    0.0000 C   0  0  1  0  0  0  0  0  0  0  0  0
    5.9035    1.5688    0.0000 C   0  0  1  0  0  0  0  0  0  0  0  0
    4.5969    2.8754    0.0000 C   0  0  0  0  0  0  0  0  0  0  0  0
    2.9659    3.1998    0.0000 C   0  0  1  0  0  0  0  0  0  0  0  0
    6.9035    1.5688    0.0000 C   0  0  0  0  0  0  0  0  0  0  0  0
    6.2279    3.1998    0.0000 C   0  0  0  0  0  0  0  0  0  0  0  0
    3.2904    1.5688    0.0000 C   0  0  0  0  0  0  0  0  0  0  0  0
    4.5969    0.2622    0.0000 C   0  0  0  0  0  0  0  0  0  0  0  0
    3.6730    0.6449    0.0000 C   0  0  0  0  0  0  0  0  0  0  0  0
    3.2247    4.1657    0.0000 C   0  0  0  0  0  0  0  0  0  0  0  0
    2.0000    2.9410    0.0000 C   0  0  0  0  0  0  0  0  0  0  0  0
    4.7488   -0.7683    0.0000 C   0  0  0  0  0  0  0  0  0  0  0  0
    2.8370    0.0236    0.0000 C   0  0  0  0  0  0  0  0  0  0  0  0
    3.9273   -1.4087    0.0000 C   0  0  0  0  0  0  0  0  0  0  0  0
    2.9650   -1.0101    0.0000 C   0  0  0  0  0  0  0  0  0  0  0  0
    8.4035    2.4348    0.0000 C   0  0  0  0  0  0  0  0  0  0  0  0
    5.8190   -2.1301    0.0000 C   0  0  0  0  0  0  0  0  0  0  0  0
    6.8892   -3.4920    0.0000 C   0  0  0  0  0  0  0  0  0  0  0  0
    6.1030   -4.1098    0.0000 C   0  0  0  0  0  0  0  0  0  0  0  0
    7.8175   -3.8639    0.0000 C   0  0  0  0  0  0  0  0  0  0  0  0
    6.2450   -5.0997    0.0000 C   0  0  0  0  0  0  0  0  0  0  0  0
    7.9594   -4.8538    0.0000 C   0  0  0  0  0  0  0  0  0  0  0  0
    7.1732   -5.4717    0.0000 C   0  0  0  0  0  0  0  0  0  0  0  0
    5.3998    3.1008    0.0000 H   0  0  0  0  0  0  0  0  0  0  0  0
    6.2479    1.0533    0.0000 H   0  0  0  0  0  0  0  0  0  0  0  0
    4.9743    3.3672    0.0000 H   0  0  0  0  0  0  0  0  0  0  0  0
    4.2195    3.3672    0.0000 H   0  0  0  0  0  0  0  0  0  0  0  0
    2.8055    2.6009    0.0000 H   0  0  0  0  0  0  0  0  0  0  0  0
    6.7958    0.9582    0.0000 H   0  0  0  0  0  0  0  0  0  0  0  0
    7.4861    1.3567    0.0000 H   0  0  0  0  0  0  0  0  0  0  0  0
    6.6663    2.7614    0.0000 H   0  0  0  0  0  0  0  0  0  0  0  0
    6.6663    3.6382    0.0000 H   0  0  0  0  0  0  0  0  0  0  0  0
    5.7895    3.6382    0.0000 H   0  0  0  0  0  0  0  0  0  0  0  0
    3.7867    3.9037    0.0000 H   0  0  0  0  0  0  0  0  0  0  0  0
    3.5804    4.6736    0.0000 H   0  0  0  0  0  0  0  0  0  0  0  0
    1.8395    3.5398    0.0000 H   0  0  0  0  0  0  0  0  0  0  0  0
    1.4011    2.7805    0.0000 H   0  0  0  0  0  0  0  0  0  0  0  0
    2.1605    2.3421    0.0000 H   0  0  0  0  0  0  0  0  0  0  0  0
    7.0935    2.9718    0.0000 H   0  0  0  0  0  0  0  0  0  0  0  0
    2.2670    0.2675    0.0000 H   0  0  0  0  0  0  0  0  0  0  0  0
    4.0106   -2.0231    0.0000 H   0  0  0  0  0  0  0  0  0  0  0  0
    2.4716   -1.3856    0.0000 H   0  0  0  0  0  0  0  0  0  0  0  0
    8.4035    1.8148    0.0000 H   0  0  0  0  0  0  0  0  0  0  0  0
    9.0235    2.4348    0.0000 H   0  0  0  0  0  0  0  0  0  0  0  0
    8.4035    3.0548    0.0000 H   0  0  0  0  0  0  0  0  0  0  0  0
    6.1645   -0.7571    0.0000 H   0  0  0  0  0  0  0  0  0  0  0  0
    2.6781    5.4717    0.0000 H   0  0  0  0  0  0  0  0  0  0  0  0
    7.2347   -2.1190    0.0000 H   0  0  0  0  0  0  0  0  0  0  0  0
    5.5275   -3.8792    0.0000 H   0  0  0  0  0  0  0  0  0  0  0  0
    8.3050   -3.4808    0.0000 H   0  0  0  0  0  0  0  0  0  0  0  0
    5.7575   -5.4828    0.0000 H   0  0  0  0  0  0  0  0  0  0  0  0
    8.5350   -5.0844    0.0000 H   0  0  0  0  0  0  0  0  0  0  0  0
    7.2612   -6.0854    0.0000 H   0  0  0  0  0  0  0  0  0  0  0  0
  1 10  1  0  0  0  0 
  1 16  1  0  0  0  0 
  2 15  2  0  0  0  0 
  3 18  1  0  0  0  0 
  3 55  1  0  0  0  0 
  4 25  2  0  0  0  0 
  5 11  1  0  0  0  0 
  5 12  1  0  0  0  0 
  5 15  1  0  0  0  0 
  6 13  1  0  0  0  0 
  6 24  1  0  0  0  0 
  6 47  1  0  0  0  0 
  7 20  1  0  0  0  0 
  7 25  1  0  0  0  0 
  7 54  1  0  0  0  0 
  8 25  1  0  0  0  0 
  8 26  1  0  0  0  0 
  8 56  1  0  0  0  0 
  9 10  1  0  0  0  0 
  9 11  1  0  0  0  0 
  9 14  1  1  0  0  0 
  9 32  1  0  0  0  0 
 10 13  1  1  0  0  0 
 10 33  1  0  0  0  0 
 11 34  1  0  0  0  0 
 11 35  1  0  0  0  0 
 12 18  1  0  0  0  0 
 12 19  1  6  0  0  0 
 12 36  1  0  0  0  0 
 13 37  1  0  0  0  0 
 13 38  1  0  0  0  0 
 14 39  1  0  0  0  0 
 14 40  1  0  0  0  0 
 14 41  1  0  0  0  0 
 15 17  1  0  0  0  0 
 16 17  2  0  0  0  0 
 16 20  1  0  0  0  0 
 17 21  1  0  0  0  0 
 18 42  1  0  0  0  0 
 18 43  1  0  0  0  0 
 19 44  1  0  0  0  0 
 19 45  1  0  0  0  0 
 19 46  1  0  0  0  0 
 20 22  2  0  0  0  0 
 21 23  2  0  0  0  0 
 21 48  1  0  0  0  0 
 22 23  1  0  0  0  0 
 22 49  1  0  0  0  0 
 23 50  1  0  0  0  0 
 24 51  1  0  0  0  0 
 24 52  1  0  0  0  0 
 24 53  1  0  0  0  0 
 26 27  2  0  0  0  0 
 26 28  1  0  0  0  0 
 27 29  1  0  0  0  0 
 27 57  1  0  0  0  0 
 28 30  2  0  0  0  0 
 28 58  1  0  0  0  0 
 29 31  2  0  0  0  0 
 29 59  1  0  0  0  0 
 30 31  1  0  0  0  0 
 30 60  1  0  0  0  0 
 31 61  1  0  0  0  0 
M  END
> <cdk:Title>
44495362

> <cdk:Remark>
null

> <PUBCHEM_COMPOUND_CID>
44495362

> <PUBCHEM_COMPOUND_CANONICALIZED>
1

> <PUBCHEM_CACTVS_COMPLEXITY>
598

> <PUBCHEM_CACTVS_HBOND_ACCEPTOR>
5

> <PUBCHEM_CACTVS_HBOND_DONOR>
4

> <PUBCHEM_CACTVS_ROTATABLE_BOND>
6

> <PUBCHEM_CACTVS_SUBSKEYS>
AAADceB7uAAAAAAAAAAAAAAAAAAAAAAAAAAwYAAAAAAWAAABQAAAHgAQCAAADTzhmAYzxoPABgCIAiVSUACCCAAlIgAIiIENbMiONjbEtZuHeWju9hPY6aecyCCOAAAAQAAIEAAAAACAABAgAAAAAAAAAA==

> <PUBCHEM_IUPAC_OPENEYE_NAME>
1-[(2S,3R)-5-[(1R)-2-hydroxy-1-methyl-ethyl]-3-methyl-2-(methylaminomethyl)-6-oxo-3,4-dihydro-2H-1,5-benzoxazocin-10-yl]-3-phenyl-urea

> <PUBCHEM_IUPAC_CAS_NAME>
1-[(2S,3R)-5-[(2R)-1-hydroxypropan-2-yl]-3-methyl-2-(methylaminomethyl)-6-oxo-3,4-dihydro-2H-1,5-benzoxazocin-10-yl]-3-phenylurea

> <PUBCHEM_IUPAC_NAME>
1-[(2S,3R)-5-[(2R)-1-hydroxypropan-2-yl]-3-methyl-2-(methylaminomethyl)-6-oxo-3,4-dihydro-2H-1,5-benzoxazocin-10-yl]-3-phenylurea

> <PUBCHEM_IUPAC_SYSTEMATIC_NAME>
1-[(2S,3R)-3-methyl-2-(methylaminomethyl)-6-oxidanylidene-5-[(2R)-1-oxidanylpropan-2-yl]-3,4-dihydro-2H-1,5-benzoxazocin-10-yl]-3-phenyl-urea

> <PUBCHEM_IUPAC_TRADITIONAL_NAME>
1-[(2S,3R)-5-[(1R)-2-hydroxy-1-methyl-ethyl]-6-keto-3-methyl-2-(methylaminomethyl)-3,4-dihydro-2H-1,5-benzoxazocin-10-yl]-3-phenyl-urea

> <PUBCHEM_IUPAC_INCHI>
InChI=1S/C23H30N4O4/c1-15-13-27(16(2)14-28)22(29)18-10-7-11-19(21(18)31-20(15)12-24-3)26-23(30)25-17-8-5-4-6-9-17/h4-11,15-16,20,24,28H,12-14H2,1-3H3,(H2,25,26,30)/t15-,16-,20-/m1/s1

> <PUBCHEM_IUPAC_INCHIKEY>
RKVKDUWOYQBGEN-JXXFODFXSA-N

> <PUBCHEM_XLOGP3_AA>
1.9

> <PUBCHEM_EXACT_MASS>
426.226705

> <PUBCHEM_MOLECULAR_FORMULA>
C23H30N4O4

> <PUBCHEM_MOLECULAR_WEIGHT>
426.5087

> <PUBCHEM_OPENEYE_CAN_SMILES>
CC1CN(C(=O)C2=C(C(=CC=C2)NC(=O)NC3=CC=CC=C3)OC1CNC)C(C)CO

> <PUBCHEM_OPENEYE_ISO_SMILES>
C[C@@H]1CN(C(=O)C2=C(C(=CC=C2)NC(=O)NC3=CC=CC=C3)O[C@@H]1CNC)[C@H](C)CO

> <PUBCHEM_CACTVS_TPSA>
103

> <PUBCHEM_MONOISOTOPIC_WEIGHT>
426.226705

> <PUBCHEM_TOTAL_CHARGE>
0

> <PUBCHEM_HEAVY_ATOM_COUNT>
31

> <PUBCHEM_ATOM_DEF_STEREO_COUNT>
3

> <PUBCHEM_ATOM_UDEF_STEREO_COUNT>
0

> <PUBCHEM_BOND_DEF_STEREO_COUNT>
0

> <PUBCHEM_BOND_UDEF_STEREO_COUNT>
0

> <PUBCHEM_ISOTOPIC_ATOM_COUNT>
0

> <PUBCHEM_COMPONENT_COUNT>
1

> <PUBCHEM_CACTVS_TAUTO_COUNT>
3

> <PUBCHEM_COORDINATE_TYPE>
1

> <PUBCHEM_BONDANNOTATIONS>
10  13  5

$$$$
