
  CDK     0202151410

 33 34  0  0  0  0  0  0  0  0999 V2000
   13.2357    0.0291    0.0000 O   0  0  0  0  0  0  0  0  0  0  0  0
   14.3376   -0.7715    0.0000 O   0  0  0  0  0  0  0  0  0  0  0  0
    9.3120    2.3966    0.0000 O   0  0  0  0  0  0  0  0  0  0  0  0
   14.3946    1.3163    0.0000 N   0  0  0  0  0  0  0  0  0  0  0  0
   11.2142    3.0146    0.0000 N   0  0  0  0  0  0  0  0  0  0  0  0
   16.0697   -0.7715    0.0000 N   0  0  0  0  0  0  0  0  0  0  0  0
    8.7768    4.0439    0.0000 N   0  0  0  0  0  0  0  0  0  0  0  0
   12.7004    1.6764    0.0000 C   0  0  0  0  0  0  0  0  0  0  0  0
   11.7494    1.3674    0.0000 C   0  0  0  0  0  0  0  0  0  0  0  0
   12.9084    2.6545    0.0000 C   0  0  0  0  0  0  0  0  0  0  0  0
   15.2037    0.7285    0.0000 C   0  0  3  0  0  0  0  0  0  0  0  0
   11.0062    2.0365    0.0000 C   0  0  0  0  0  0  0  0  0  0  0  0
   12.1652    3.3237    0.0000 C   0  0  0  0  0  0  0  0  0  0  0  0
   13.4436    1.0073    0.0000 C   0  0  0  0  0  0  0  0  0  0  0  0
   14.7037    2.2673    0.0000 C   0  0  0  0  0  0  0  0  0  0  0  0
   16.0127    1.3163    0.0000 C   0  0  0  0  0  0  0  0  0  0  0  0
   15.7037    2.2673    0.0000 C   0  0  0  0  0  0  0  0  0  0  0  0
   10.4710    3.6838    0.0000 C   0  0  3  0  0  0  0  0  0  0  0  0
   15.2037   -0.2715    0.0000 C   0  0  0  0  0  0  0  0  0  0  0  0
   10.6789    4.6619    0.0000 C   0  0  0  0  0  0  0  0  0  0  0  0
    9.5200    3.3748    0.0000 C   0  0  0  0  0  0  0  0  0  0  0  0
   16.0697   -1.7715    0.0000 C   0  0  0  0  0  0  0  0  0  0  0  0
   15.2037   -2.2715    0.0000 C   0  0  0  0  0  0  0  0  0  0  0  0
   15.2037   -3.2715    0.0000 C   0  0  0  0  0  0  0  0  0  0  0  0
    7.8258    3.7349    0.0000 C   0  0  0  0  0  0  0  0  0  0  0  0
   16.9357   -2.2715    0.0000 C   0  0  0  0  0  0  0  0  0  0  0  0
   16.9357   -3.2715    0.0000 C   0  0  0  0  0  0  0  0  0  0  0  0
    7.6178    2.7567    0.0000 C   0  0  0  0  0  0  0  0  0  0  0  0
    7.0826    4.4040    0.0000 C   0  0  0  0  0  0  0  0  0  0  0  0
    6.1316    4.0950    0.0000 C   0  0  0  0  0  0  0  0  0  0  0  0
    6.6668    2.4477    0.0000 C   0  0  0  0  0  0  0  0  0  0  0  0
    8.3610    2.0876    0.0000 C   0  0  0  0  0  0  0  0  0  0  0  0
    5.3884    4.7641    0.0000 C   0  0  0  0  0  0  0  0  0  0  0  0
  1 14  1  0  0  0  0 
  2 19  1  0  0  0  0 
  3 21  1  0  0  0  0 
  4 11  1  0  0  0  0 
  4 14  1  0  0  0  0 
  4 15  1  0  0  0  0 
  5 12  1  0  0  0  0 
  5 13  1  0  0  0  0 
  5 18  1  0  0  0  0 
  6 19  1  0  0  0  0 
  6 22  1  0  0  0  0 
  7 21  1  0  0  0  0 
  7 25  1  0  0  0  0 
  8  9  1  0  0  0  0 
  8 10  1  0  0  0  0 
  8 14  1  0  0  0  0 
  9 12  1  0  0  0  0 
 10 13  1  0  0  0  0 
 11 16  1  0  0  0  0 
 11 19  1  0  0  0  0 
 15 17  1  0  0  0  0 
 16 17  1  0  0  0  0 
 18 20  1  0  0  0  0 
 18 21  1  0  0  0  0 
 22 23  1  0  0  0  0 
 22 26  1  0  0  0  0 
 23 24  1  0  0  0  0 
 25 28  1  0  0  0  0 
 25 29  1  0  0  0  0 
 26 27  1  0  0  0  0 
 28 31  1  0  0  0  0 
 28 32  1  0  0  0  0 
 29 30  1  0  0  0  0 
 30 33  1  0  0  0  0 
M  END
> <PUBCHEM_COMPOUND_CID>
50108870

$$$$
