39146774
  CDK     1228141037

 25 26  0  0  0  0  0  0  0  0999 V2000
    4.6783   -0.9387    0.0000 S   0  0  0  0  0  0  0  0  0  0  0  0
    2.8660    1.8660    0.0000 S   0  0  0  0  0  0  0  0  0  0  0  0
    6.7619   -1.0000    0.0000 O   0  0  0  0  0  0  0  0  0  0  0  0
    6.7619    0.7321    0.0000 O   0  0  0  0  0  0  0  0  0  0  0  0
    2.8660   -1.1340    0.0000 N   0  0  0  0  0  0  0  0  0  0  0  0
    2.0000    0.3660    0.0000 N   0  0  0  0  0  0  0  0  0  0  0  0
    4.6783    0.6708    0.0000 C   0  0  0  0  0  0  0  0  0  0  0  0
    3.7320    0.3660    0.0000 C   0  0  0  0  0  0  0  0  0  0  0  0
    5.2619   -0.1340    0.0000 C   0  0  0  0  0  0  0  0  0  0  0  0
    3.7320   -0.6340    0.0000 C   0  0  0  0  0  0  0  0  0  0  0  0
    4.9889    1.6213    0.0000 C   0  0  0  0  0  0  0  0  0  0  0  0
    2.8660    0.8660    0.0000 C   0  0  0  0  0  0  0  0  0  0  0  0
    6.2619   -0.1340    0.0000 C   0  0  0  0  0  0  0  0  0  0  0  0
    7.7619   -1.0000    0.0000 C   0  0  0  0  0  0  0  0  0  0  0  0
    2.0000   -0.6340    0.0000 C   0  0  0  0  0  0  0  0  0  0  0  0
    8.2619   -1.8660    0.0000 C   0  0  0  0  0  0  0  0  0  0  0  0
    5.5783    1.4287    0.0000 H   0  0  0  0  0  0  0  0  0  0  0  0
    5.1815    2.2106    0.0000 H   0  0  0  0  0  0  0  0  0  0  0  0
    4.3996    1.8139    0.0000 H   0  0  0  0  0  0  0  0  0  0  0  0
    8.3445   -0.7879    0.0000 H   0  0  0  0  0  0  0  0  0  0  0  0
    7.6542   -0.3894    0.0000 H   0  0  0  0  0  0  0  0  0  0  0  0
    1.4631   -0.9440    0.0000 H   0  0  0  0  0  0  0  0  0  0  0  0
    7.7249   -2.1760    0.0000 H   0  0  0  0  0  0  0  0  0  0  0  0
    8.5719   -2.4030    0.0000 H   0  0  0  0  0  0  0  0  0  0  0  0
    8.7988   -1.5560    0.0000 H   0  0  0  0  0  0  0  0  0  0  0  0
  1  9  1  0  0  0  0 
  1 10  1  0  0  0  0 
  2 12  2  0  0  0  0 
  3 13  1  0  0  0  0 
  3 14  1  0  0  0  0 
  4 13  1  0  0  0  0 
  5 10  2  0  0  0  0 
  5 15  1  0  0  0  0 
  6 12  1  0  0  0  0 
  6 15  2  0  0  0  0 
  7  8  2  0  0  0  0 
  7  9  1  0  0  0  0 
  7 11  1  0  0  0  0 
  8 10  1  0  0  0  0 
  8 12  1  0  0  0  0 
  9 13  2  3  0  0  0 
 11 17  1  0  0  0  0 
 11 18  1  0  0  0  0 
 11 19  1  0  0  0  0 
 14 16  1  0  0  0  0 
 14 20  1  0  0  0  0 
 14 21  1  0  0  0  0 
 15 22  1  0  0  0  0 
 16 23  1  0  0  0  0 
 16 24  1  0  0  0  0 
 16 25  1  0  0  0  0 
M  CHG  1   4  -1
M  END
> <cdk:Title>
39146774

> <cdk:Remark>
null

> <PUBCHEM_COMPOUND_CID>
39146774

> <PUBCHEM_COMPOUND_CANONICALIZED>
1

> <PUBCHEM_CACTVS_COMPLEXITY>
475

> <PUBCHEM_CACTVS_HBOND_ACCEPTOR>
4

> <PUBCHEM_CACTVS_HBOND_DONOR>
0

> <PUBCHEM_CACTVS_ROTATABLE_BOND>
2

> <PUBCHEM_CACTVS_SUBSKEYS>
AAADccBzMABgAAAAAAAAAAAAAAAAAQAAAAAgAAAAAAAAAEAAAAAAHgQAAAAADAChwAYDCAIABAikAgBhJACAGAEgIBAACAAgABgYAAAgAAAAAAAAAAAkgAAAAAAAAAAAAAAAAAAAAAAAAAAAAAAAAAAAAA==

> <PUBCHEM_IUPAC_OPENEYE_NAME>
ethoxy-(5-methyl-4-thioxo-thieno[2,3-d]pyrimidin-6-ylidene)methanolate

> <PUBCHEM_IUPAC_CAS_NAME>
ethoxy-(5-methyl-4-sulfanylidene-6-thieno[2,3-d]pyrimidinylidene)methanolate

> <PUBCHEM_IUPAC_NAME>
ethoxy-(5-methyl-4-sulfanylidenethieno[2,3-d]pyrimidin-6-ylidene)methanolate

> <PUBCHEM_IUPAC_SYSTEMATIC_NAME>
ethoxy-(5-methyl-4-sulfanylidene-thieno[2,3-d]pyrimidin-6-ylidene)methanolate

> <PUBCHEM_IUPAC_TRADITIONAL_NAME>
ethoxy-(5-methyl-4-thioxo-thieno[2,3-d]pyrimidin-6-ylidene)methanolate

> <PUBCHEM_IUPAC_INCHI>
InChI=1S/C10H10N2O2S2/c1-3-14-10(13)7-5(2)6-8(15)11-4-12-9(6)16-7/h4,13H,3H2,1-2H3/p-1

> <PUBCHEM_IUPAC_INCHIKEY>
UYYFIHHGPUGXJB-UHFFFAOYSA-M

> <PUBCHEM_XLOGP3_AA>
2.1

> <PUBCHEM_EXACT_MASS>
253.010545

> <PUBCHEM_MOLECULAR_FORMULA>
C10H9N2O2S2-

> <PUBCHEM_MOLECULAR_WEIGHT>
253.32066

> <PUBCHEM_OPENEYE_CAN_SMILES>
CCOC(=C1C(=C2C(=NC=NC2=S)S1)C)[O-]

> <PUBCHEM_OPENEYE_ISO_SMILES>
CCOC(=C1C(=C2C(=NC=NC2=S)S1)C)[O-]

> <PUBCHEM_CACTVS_TPSA>
114

> <PUBCHEM_MONOISOTOPIC_WEIGHT>
253.010545

> <PUBCHEM_TOTAL_CHARGE>
-1

> <PUBCHEM_HEAVY_ATOM_COUNT>
16

> <PUBCHEM_ATOM_DEF_STEREO_COUNT>
0

> <PUBCHEM_ATOM_UDEF_STEREO_COUNT>
0

> <PUBCHEM_BOND_DEF_STEREO_COUNT>
0

> <PUBCHEM_BOND_UDEF_STEREO_COUNT>
1

> <PUBCHEM_ISOTOPIC_ATOM_COUNT>
0

> <PUBCHEM_COMPONENT_COUNT>
1

> <PUBCHEM_CACTVS_TAUTO_COUNT>
5

> <PUBCHEM_COORDINATE_TYPE>
1

> <PUBCHEM_BONDANNOTATIONS>
1  10  8

$$$$
