9497152
  CDK     0104151102

 41 42  0  0  0  0  0  0  0  0999 V2000
    4.5981   -0.2500    0.0000 S   0  0  0  0  0  0  0  0  0  0  0  0
    6.3301   -4.2500    0.0000 F   0  0  0  0  0  0  0  0  0  0  0  0
    5.3301   -3.2500    0.0000 F   0  0  0  0  0  0  0  0  0  0  0  0
    7.3301   -3.2500    0.0000 F   0  0  0  0  0  0  0  0  0  0  0  0
    2.8660    0.7500    0.0000 O   0  0  0  0  0  0  0  0  0  0  0  0
    2.0000    4.2500    0.0000 O   0  0  0  0  0  0  0  0  0  0  0  0
    3.7320    4.2500    0.0000 O   0  0  0  0  0  0  0  0  0  0  0  0
    6.3301   -0.2500    0.0000 N   0  0  0  0  0  0  0  0  0  0  0  0
    3.7320    2.2500    0.0000 N   0  0  0  0  0  0  0  0  0  0  0  0
    3.7320   -2.7500    0.0000 N   0  0  0  0  0  0  0  0  0  0  0  0
    8.9962   -1.7708    0.0000 C   0  0  1  0  0  0  0  0  0  0  0  0
    8.9962   -0.7292    0.0000 C   0  0  0  0  0  0  0  0  0  0  0  0
    8.0901   -2.2847    0.0000 C   0  0  0  0  0  0  0  0  0  0  0  0
    8.0901   -0.2153    0.0000 C   0  0  0  0  0  0  0  0  0  0  0  0
    7.1962   -1.7500    0.0000 C   0  0  0  0  0  0  0  0  0  0  0  0
    7.1962   -0.7500    0.0000 C   0  0  0  0  0  0  0  0  0  0  0  0
    9.8602   -2.2742    0.0000 C   0  0  0  0  0  0  0  0  0  0  0  0
    6.3301   -2.2500    0.0000 C   0  0  0  0  0  0  0  0  0  0  0  0
    5.4641   -1.7500    0.0000 C   0  0  0  0  0  0  0  0  0  0  0  0
    5.4641   -0.7500    0.0000 C   0  0  0  0  0  0  0  0  0  0  0  0
    6.3301   -3.2500    0.0000 C   0  0  0  0  0  0  0  0  0  0  0  0
    4.5981   -2.2500    0.0000 C   0  0  0  0  0  0  0  0  0  0  0  0
    4.5981    0.7500    0.0000 C   0  0  0  0  0  0  0  0  0  0  0  0
    3.7320    1.2500    0.0000 C   0  0  0  0  0  0  0  0  0  0  0  0
    2.8660    2.7500    0.0000 C   0  0  0  0  0  0  0  0  0  0  0  0
    2.8660    3.7500    0.0000 C   0  0  0  0  0  0  0  0  0  0  0  0
    9.5337   -1.4619    0.0000 H   0  0  0  0  0  0  0  0  0  0  0  0
    9.6070   -0.8353    0.0000 H   0  0  0  0  0  0  0  0  0  0  0  0
    9.2052   -0.1455    0.0000 H   0  0  0  0  0  0  0  0  0  0  0  0
    7.6855   -2.7544    0.0000 H   0  0  0  0  0  0  0  0  0  0  0  0
    8.4837   -2.7637    0.0000 H   0  0  0  0  0  0  0  0  0  0  0  0
    8.4837    0.2637    0.0000 H   0  0  0  0  0  0  0  0  0  0  0  0
    7.6855    0.2544    0.0000 H   0  0  0  0  0  0  0  0  0  0  0  0
    9.5482   -2.8099    0.0000 H   0  0  0  0  0  0  0  0  0  0  0  0
   10.3960   -2.5862    0.0000 H   0  0  0  0  0  0  0  0  0  0  0  0
   10.1723   -1.7384    0.0000 H   0  0  0  0  0  0  0  0  0  0  0  0
    5.2087    0.6423    0.0000 H   0  0  0  0  0  0  0  0  0  0  0  0
    4.8101    1.3326    0.0000 H   0  0  0  0  0  0  0  0  0  0  0  0
    4.2690    2.5600    0.0000 H   0  0  0  0  0  0  0  0  0  0  0  0
    2.2554    2.8577    0.0000 H   0  0  0  0  0  0  0  0  0  0  0  0
    2.6540    2.1674    0.0000 H   0  0  0  0  0  0  0  0  0  0  0  0
  1 20  1  0  0  0  0 
  1 23  1  0  0  0  0 
  2 21  1  0  0  0  0 
  3 21  1  0  0  0  0 
  4 21  1  0  0  0  0 
  5 24  2  0  0  0  0 
  6 26  1  0  0  0  0 
  7 26  2  0  0  0  0 
  8 16  1  0  0  0  0 
  8 20  2  0  0  0  0 
  9 24  1  0  0  0  0 
  9 25  1  0  0  0  0 
  9 39  1  0  0  0  0 
 10 22  3  0  0  0  0 
 11 12  1  0  0  0  0 
 11 13  1  0  0  0  0 
 11 17  1  6  0  0  0 
 11 27  1  0  0  0  0 
 12 14  1  0  0  0  0 
 12 28  1  0  0  0  0 
 12 29  1  0  0  0  0 
 13 15  1  0  0  0  0 
 13 30  1  0  0  0  0 
 13 31  1  0  0  0  0 
 14 16  1  0  0  0  0 
 14 32  1  0  0  0  0 
 14 33  1  0  0  0  0 
 15 16  2  0  0  0  0 
 15 18  1  0  0  0  0 
 17 34  1  0  0  0  0 
 17 35  1  0  0  0  0 
 17 36  1  0  0  0  0 
 18 19  2  0  0  0  0 
 18 21  1  0  0  0  0 
 19 20  1  0  0  0  0 
 19 22  1  0  0  0  0 
 23 24  1  0  0  0  0 
 23 37  1  0  0  0  0 
 23 38  1  0  0  0  0 
 25 26  1  0  0  0  0 
 25 40  1  0  0  0  0 
 25 41  1  0  0  0  0 
M  CHG  1   6  -1
M  END
> <cdk:Title>
9497152

> <cdk:Remark>
null

> <PUBCHEM_COMPOUND_CID>
9497152

> <PUBCHEM_COMPOUND_CANONICALIZED>
1

> <PUBCHEM_CACTVS_COMPLEXITY>
587

> <PUBCHEM_CACTVS_HBOND_ACCEPTOR>
9

> <PUBCHEM_CACTVS_HBOND_DONOR>
1

> <PUBCHEM_CACTVS_ROTATABLE_BOND>
4

> <PUBCHEM_CACTVS_SUBSKEYS>
AAADccB7MYBAAAAAAAAAAAAAAAAAAAAAAAA8QAAAAAAAAACxgAAAHwQQAAAADQjF3hSCiZLIEAi4BwXwXACi0CBhCDAAmLC4RJgKoGLgkLGEIAhglgD4yA8QgMAOgAAAAAAAAAAQAAQAAAQAAAAAAAAAAA==

> <PUBCHEM_IUPAC_OPENEYE_NAME>
2-[[2-[[(6S)-3-cyano-6-methyl-4-(trifluoromethyl)-5,6,7,8-tetrahydroquinolin-2-yl]sulfanyl]acetyl]amino]acetate

> <PUBCHEM_IUPAC_CAS_NAME>
2-[[2-[[(6S)-3-cyano-6-methyl-4-(trifluoromethyl)-5,6,7,8-tetrahydroquinolin-2-yl]thio]-1-oxoethyl]amino]acetate

> <PUBCHEM_IUPAC_NAME>
2-[[2-[[(6S)-3-cyano-6-methyl-4-(trifluoromethyl)-5,6,7,8-tetrahydroquinolin-2-yl]sulfanyl]acetyl]amino]acetate

> <PUBCHEM_IUPAC_SYSTEMATIC_NAME>
2-[2-[[(6S)-3-cyano-6-methyl-4-(trifluoromethyl)-5,6,7,8-tetrahydroquinolin-2-yl]sulfanyl]ethanoylamino]ethanoate

> <PUBCHEM_IUPAC_TRADITIONAL_NAME>
2-[[2-[[(6S)-3-cyano-6-methyl-4-(trifluoromethyl)-5,6,7,8-tetrahydroquinolin-2-yl]thio]acetyl]amino]acetate

> <PUBCHEM_IUPAC_INCHI>
InChI=1S/C16H16F3N3O3S/c1-8-2-3-11-9(4-8)14(16(17,18)19)10(5-20)15(22-11)26-7-12(23)21-6-13(24)25/h8H,2-4,6-7H2,1H3,(H,21,23)(H,24,25)/p-1/t8-/m0/s1

> <PUBCHEM_IUPAC_INCHIKEY>
WFZYCKQTMOLOHC-QMMMGPOBSA-M

> <PUBCHEM_XLOGP3_AA>
3.4

> <PUBCHEM_EXACT_MASS>
386.078622

> <PUBCHEM_MOLECULAR_FORMULA>
C16H15F3N3O3S-

> <PUBCHEM_MOLECULAR_WEIGHT>
386.36881

> <PUBCHEM_OPENEYE_CAN_SMILES>
CC1CCC2=C(C1)C(=C(C(=N2)SCC(=O)NCC(=O)[O-])C#N)C(F)(F)F

> <PUBCHEM_OPENEYE_ISO_SMILES>
C[C@H]1CCC2=C(C1)C(=C(C(=N2)SCC(=O)NCC(=O)[O-])C#N)C(F)(F)F

> <PUBCHEM_CACTVS_TPSA>
131

> <PUBCHEM_MONOISOTOPIC_WEIGHT>
386.078622

> <PUBCHEM_TOTAL_CHARGE>
-1

> <PUBCHEM_HEAVY_ATOM_COUNT>
26

> <PUBCHEM_ATOM_DEF_STEREO_COUNT>
1

> <PUBCHEM_ATOM_UDEF_STEREO_COUNT>
0

> <PUBCHEM_BOND_DEF_STEREO_COUNT>
0

> <PUBCHEM_BOND_UDEF_STEREO_COUNT>
0

> <PUBCHEM_ISOTOPIC_ATOM_COUNT>
0

> <PUBCHEM_COMPONENT_COUNT>
1

> <PUBCHEM_CACTVS_TAUTO_COUNT>
2

> <PUBCHEM_COORDINATE_TYPE>
1

> <PUBCHEM_BONDANNOTATIONS>
11  17  6

$$$$
