
  CDK     0202151413

 11 11  0  0  0  0  0  0  0  0999 V2000
    7.1962   -2.6550    0.0000 Br  0  0  0  0  0  0  0  0  0  0  0  0
    7.1962    1.3450    0.0000 S   0  0  0  0  0  0  0  0  0  0  0  0
    4.5981   -1.1550    0.0000 O   0  0  0  0  0  0  0  0  0  0  0  0
    5.4641   -2.6550    0.0000 O   0  0  0  0  0  0  0  0  0  0  0  0
    7.1962    0.3450    0.0000 C   0  0  0  0  0  0  0  0  0  0  0  0
    6.3301   -0.1550    0.0000 C   0  0  0  0  0  0  0  0  0  0  0  0
    6.3301   -1.1550    0.0000 C   0  0  0  0  0  0  0  0  0  0  0  0
    8.0622   -0.1550    0.0000 C   0  0  0  0  0  0  0  0  0  0  0  0
    7.1962   -1.6550    0.0000 C   0  0  0  0  0  0  0  0  0  0  0  0
    8.0622   -1.1550    0.0000 C   0  0  0  0  0  0  0  0  0  0  0  0
    5.4641   -1.6550    0.0000 C   0  0  0  0  0  0  0  0  0  0  0  0
  1  9  1  0  0  0  0 
  2  5  1  0  0  0  0 
  3 11  1  0  0  0  0 
  4 11  1  0  0  0  0 
  5  6  1  0  0  0  0 
  5  8  1  0  0  0  0 
  6  7  1  0  0  0  0 
  7  9  1  0  0  0  0 
  7 11  1  0  0  0  0 
  8 10  1  0  0  0  0 
  9 10  1  0  0  0  0 
M  END
> <PUBCHEM_COMPOUND_CID>
32338269

$$$$
