68856775
  CDK     0202151410

 80 85  0  0  0  0  0  0  0  0999 V2000
    4.9952   -0.1844    0.0000 O   0  0  0  0  0  0  0  0  0  0  0  0
    8.3271   -0.8092    0.0000 O   0  0  0  0  0  0  0  0  0  0  0  0
    6.2199    2.5227    0.0000 O   0  0  0  0  0  0  0  0  0  0  0  0
    7.0859    4.0227    0.0000 O   0  0  0  0  0  0  0  0  0  0  0  0
    6.8271    0.0568    0.0000 N   0  0  0  0  0  0  0  0  0  0  0  0
    7.9520    2.5227    0.0000 N   0  0  0  0  0  0  0  0  0  0  0  0
    6.8271   -1.6752    0.0000 N   0  0  0  0  0  0  0  0  0  0  0  0
    2.6200    2.1476    0.0000 N   0  0  0  0  0  0  0  0  0  0  0  0
    2.6200    0.4155    0.0000 N   0  0  0  0  0  0  0  0  0  0  0  0
    7.0859    1.0227    0.0000 C   0  0  1  0  0  0  0  0  0  0  0  0
    6.1200    1.2815    0.0000 C   0  0  2  0  0  0  0  0  0  0  0  0
    7.9520    1.5227    0.0000 C   0  0  0  0  0  0  0  0  0  0  0  0
    5.8612    0.3156    0.0000 C   0  0  0  0  0  0  0  0  0  0  0  0
    5.6200    2.1476    0.0000 C   0  0  0  0  0  0  0  0  0  0  0  0
    7.3271   -0.8092    0.0000 C   0  0  0  0  0  0  0  0  0  0  0  0
    8.8180    3.0227    0.0000 C   0  0  1  0  0  0  0  0  0  0  0  0
    4.6200    2.1476    0.0000 C   0  0  0  0  0  0  0  0  0  0  0  0
    8.8180    4.0227    0.0000 C   0  0  0  0  0  0  0  0  0  0  0  0
    7.0859    3.0227    0.0000 C   0  0  0  0  0  0  0  0  0  0  0  0
    9.6840    2.5227    0.0000 C   0  0  0  0  0  0  0  0  0  0  0  0
    7.3271   -2.5413    0.0000 C   0  0  1  0  0  0  0  0  0  0  0  0
    4.1200    1.2815    0.0000 C   0  0  0  0  0  0  0  0  0  0  0  0
    4.1200    3.0136    0.0000 C   0  0  0  0  0  0  0  0  0  0  0  0
    9.6840    4.5227    0.0000 C   0  0  0  0  0  0  0  0  0  0  0  0
    6.8271   -3.4073    0.0000 C   0  0  0  0  0  0  0  0  0  0  0  0
    7.9520    4.5227    0.0000 C   0  0  0  0  0  0  0  0  0  0  0  0
    8.3271   -2.5413    0.0000 C   0  0  0  0  0  0  0  0  0  0  0  0
    3.1200    1.2815    0.0000 C   0  0  0  0  0  0  0  0  0  0  0  0
    3.1200    3.0136    0.0000 C   0  0  0  0  0  0  0  0  0  0  0  0
    9.6840    5.5227    0.0000 C   0  0  0  0  0  0  0  0  0  0  0  0
    7.3271   -4.2733    0.0000 C   0  0  0  0  0  0  0  0  0  0  0  0
    7.9520    5.5227    0.0000 C   0  0  0  0  0  0  0  0  0  0  0  0
   10.5779    3.9881    0.0000 C   0  0  0  0  0  0  0  0  0  0  0  0
    8.8180    6.0227    0.0000 C   0  0  0  0  0  0  0  0  0  0  0  0
    5.8271   -3.4073    0.0000 C   0  0  0  0  0  0  0  0  0  0  0  0
   10.5779    6.0574    0.0000 C   0  0  0  0  0  0  0  0  0  0  0  0
    6.8271   -5.1394    0.0000 C   0  0  0  0  0  0  0  0  0  0  0  0
   11.4840    4.5019    0.0000 C   0  0  0  0  0  0  0  0  0  0  0  0
    5.3271   -4.2733    0.0000 C   0  0  0  0  0  0  0  0  0  0  0  0
    8.3686   -4.2573    0.0000 C   0  0  0  0  0  0  0  0  0  0  0  0
   11.4840    5.5435    0.0000 C   0  0  0  0  0  0  0  0  0  0  0  0
    5.8271   -5.1394    0.0000 C   0  0  0  0  0  0  0  0  0  0  0  0
    7.3340   -6.0494    0.0000 C   0  0  0  0  0  0  0  0  0  0  0  0
    8.8964   -5.1553    0.0000 C   0  0  0  0  0  0  0  0  0  0  0  0
    8.3756   -6.0574    0.0000 C   0  0  0  0  0  0  0  0  0  0  0  0
    7.5778    0.6453    0.0000 H   0  0  0  0  0  0  0  0  0  0  0  0
    5.5053    1.2006    0.0000 H   0  0  0  0  0  0  0  0  0  0  0  0
    8.1640    0.9401    0.0000 H   0  0  0  0  0  0  0  0  0  0  0  0
    8.5625    1.6304    0.0000 H   0  0  0  0  0  0  0  0  0  0  0  0
    6.2026    2.3596    0.0000 H   0  0  0  0  0  0  0  0  0  0  0  0
    5.5123    2.7582    0.0000 H   0  0  0  0  0  0  0  0  0  0  0  0
    8.8180    2.4027    0.0000 H   0  0  0  0  0  0  0  0  0  0  0  0
    6.2071   -1.6752    0.0000 H   0  0  0  0  0  0  0  0  0  0  0  0
    9.3740    1.9858    0.0000 H   0  0  0  0  0  0  0  0  0  0  0  0
   10.2209    2.2127    0.0000 H   0  0  0  0  0  0  0  0  0  0  0  0
    9.9940    3.0597    0.0000 H   0  0  0  0  0  0  0  0  0  0  0  0
    6.7071   -2.5413    0.0000 H   0  0  0  0  0  0  0  0  0  0  0  0
    4.4300    0.7446    0.0000 H   0  0  0  0  0  0  0  0  0  0  0  0
    4.4300    3.5505    0.0000 H   0  0  0  0  0  0  0  0  0  0  0  0
    7.4150    4.2127    0.0000 H   0  0  0  0  0  0  0  0  0  0  0  0
    8.3271   -3.1613    0.0000 H   0  0  0  0  0  0  0  0  0  0  0  0
    8.9471   -2.5413    0.0000 H   0  0  0  0  0  0  0  0  0  0  0  0
    8.3271   -1.9213    0.0000 H   0  0  0  0  0  0  0  0  0  0  0  0
    2.8100    3.5505    0.0000 H   0  0  0  0  0  0  0  0  0  0  0  0
    5.6830    2.8327    0.0000 H   0  0  0  0  0  0  0  0  0  0  0  0
    7.4150    5.8327    0.0000 H   0  0  0  0  0  0  0  0  0  0  0  0
   10.5708    3.3681    0.0000 H   0  0  0  0  0  0  0  0  0  0  0  0
    8.8180    6.6427    0.0000 H   0  0  0  0  0  0  0  0  0  0  0  0
    5.5171   -2.8704    0.0000 H   0  0  0  0  0  0  0  0  0  0  0  0
   10.5708    6.6773    0.0000 H   0  0  0  0  0  0  0  0  0  0  0  0
    2.0000    0.4155    0.0000 H   0  0  0  0  0  0  0  0  0  0  0  0
    2.9300   -0.1214    0.0000 H   0  0  0  0  0  0  0  0  0  0  0  0
   12.0197    4.1898    0.0000 H   0  0  0  0  0  0  0  0  0  0  0  0
    4.7071   -4.2733    0.0000 H   0  0  0  0  0  0  0  0  0  0  0  0
    8.6724   -3.7168    0.0000 H   0  0  0  0  0  0  0  0  0  0  0  0
   12.0197    5.8556    0.0000 H   0  0  0  0  0  0  0  0  0  0  0  0
    5.5171   -5.6763    0.0000 H   0  0  0  0  0  0  0  0  0  0  0  0
    7.0178   -6.5827    0.0000 H   0  0  0  0  0  0  0  0  0  0  0  0
    9.5164   -5.1529    0.0000 H   0  0  0  0  0  0  0  0  0  0  0  0
    8.6835   -6.5955    0.0000 H   0  0  0  0  0  0  0  0  0  0  0  0
  1 13  2  0  0  0  0 
  2 15  2  0  0  0  0 
  3 19  1  0  0  0  0 
  3 65  1  0  0  0  0 
  4 19  2  0  0  0  0 
  5 10  1  0  0  0  0 
  5 13  1  0  0  0  0 
  5 15  1  0  0  0  0 
  6 12  1  0  0  0  0 
 16  6  1  1  0  0  0 
  6 19  1  0  0  0  0 
  7 15  1  0  0  0  0 
 21  7  1  6  0  0  0 
  7 53  1  0  0  0  0 
  8 28  2  0  0  0  0 
  8 29  1  0  0  0  0 
  9 28  1  0  0  0  0 
  9 71  1  0  0  0  0 
  9 72  1  0  0  0  0 
 10 11  1  0  0  0  0 
 10 12  1  1  0  0  0 
 10 46  1  0  0  0  0 
 11 13  1  0  0  0  0 
 11 14  1  6  0  0  0 
 11 47  1  0  0  0  0 
 12 48  1  0  0  0  0 
 12 49  1  0  0  0  0 
 14 17  1  0  0  0  0 
 14 50  1  0  0  0  0 
 14 51  1  0  0  0  0 
 16 18  1  0  0  0  0 
 16 20  1  0  0  0  0 
 16 52  1  0  0  0  0 
 17 22  2  0  0  0  0 
 17 23  1  0  0  0  0 
 18 24  1  0  0  0  0 
 18 26  2  0  0  0  0 
 20 54  1  0  0  0  0 
 20 55  1  0  0  0  0 
 20 56  1  0  0  0  0 
 21 25  1  0  0  0  0 
 21 27  1  0  0  0  0 
 21 57  1  0  0  0  0 
 22 28  1  0  0  0  0 
 22 58  1  0  0  0  0 
 23 29  2  0  0  0  0 
 23 59  1  0  0  0  0 
 24 30  1  0  0  0  0 
 24 33  2  0  0  0  0 
 25 31  1  0  0  0  0 
 25 35  2  0  0  0  0 
 26 32  1  0  0  0  0 
 26 60  1  0  0  0  0 
 27 61  1  0  0  0  0 
 27 62  1  0  0  0  0 
 27 63  1  0  0  0  0 
 29 64  1  0  0  0  0 
 30 34  1  0  0  0  0 
 30 36  2  0  0  0  0 
 31 37  1  0  0  0  0 
 31 40  2  0  0  0  0 
 32 34  2  0  0  0  0 
 32 66  1  0  0  0  0 
 33 38  1  0  0  0  0 
 33 67  1  0  0  0  0 
 34 68  1  0  0  0  0 
 35 39  1  0  0  0  0 
 35 69  1  0  0  0  0 
 36 41  1  0  0  0  0 
 36 70  1  0  0  0  0 
 37 42  1  0  0  0  0 
 37 43  2  0  0  0  0 
 38 41  2  0  0  0  0 
 38 73  1  0  0  0  0 
 39 42  2  0  0  0  0 
 39 74  1  0  0  0  0 
 40 44  1  0  0  0  0 
 40 75  1  0  0  0  0 
 41 76  1  0  0  0  0 
 42 77  1  0  0  0  0 
 43 45  1  0  0  0  0 
 43 78  1  0  0  0  0 
 44 45  2  0  0  0  0 
 44 79  1  0  0  0  0 
 45 80  1  0  0  0  0 
M  END
> <cdk:Title>
68856775

> <cdk:Remark>
null

> <PUBCHEM_COMPOUND_CID>
68856775

> <PUBCHEM_COMPOUND_CANONICALIZED>
1

> <PUBCHEM_CACTVS_COMPLEXITY>
1060

> <PUBCHEM_CACTVS_HBOND_ACCEPTOR>
6

> <PUBCHEM_CACTVS_HBOND_DONOR>
3

> <PUBCHEM_CACTVS_ROTATABLE_BOND>
8

> <PUBCHEM_CACTVS_SUBSKEYS>
AAADcfB/uAAAAAAAAAAAAAAAAABYAAAAAAA8YMGCAAAAAADB1AAAHgAQCAAADSjBmgQ/uNPIEgCoAjN3fACCgCkxAiAI2KE4ZJiIYHrAkZGUIAholyLIyCcciMAOgAACAAAQAAAAAAQAACAAAAAAAAAAAA==

> <PUBCHEM_IUPAC_OPENEYE_NAME>
[(2S,3R)-3-[(2-amino-4-pyridyl)methyl]-1-[[(1R)-1-(1-naphthyl)ethyl]carbamoyl]-4-oxo-azetidin-2-yl]methyl-[(1R)-1-(1-naphthyl)ethyl]carbamic acid

> <PUBCHEM_IUPAC_CAS_NAME>
[(2S,3R)-3-[(2-amino-4-pyridinyl)methyl]-1-[[[(1R)-1-(1-naphthalenyl)ethyl]amino]-oxomethyl]-4-oxo-2-azetidinyl]methyl-[(1R)-1-(1-naphthalenyl)ethyl]carbamic acid

> <PUBCHEM_IUPAC_NAME>
[(2S,3R)-3-[(2-aminopyridin-4-yl)methyl]-1-[[(1R)-1-naphthalen-1-ylethyl]carbamoyl]-4-oxoazetidin-2-yl]methyl-[(1R)-1-naphthalen-1-ylethyl]carbamic acid

> <PUBCHEM_IUPAC_SYSTEMATIC_NAME>
[(2S,3R)-3-[(2-azanylpyridin-4-yl)methyl]-1-[[(1R)-1-naphthalen-1-ylethyl]carbamoyl]-4-oxidanylidene-azetidin-2-yl]methyl-[(1R)-1-naphthalen-1-ylethyl]carbamic acid

> <PUBCHEM_IUPAC_TRADITIONAL_NAME>
[(2S,3R)-3-[(2-amino-4-pyridyl)methyl]-4-keto-1-[[(1R)-1-(1-naphthyl)ethyl]carbamoyl]azetidin-2-yl]methyl-[(1R)-1-(1-naphthyl)ethyl]carbamic acid

> <PUBCHEM_IUPAC_INCHI>
InChI=1S/C36H35N5O4/c1-22(27-15-7-11-25-9-3-5-13-29(25)27)39-35(43)41-32(31(34(41)42)19-24-17-18-38-33(37)20-24)21-40(36(44)45)23(2)28-16-8-12-26-10-4-6-14-30(26)28/h3-18,20,22-23,31-32H,19,21H2,1-2H3,(H2,37,38)(H,39,43)(H,44,45)/t22-,23-,31-,32-/m1/s1

> <PUBCHEM_IUPAC_INCHIKEY>
UMYVVBOFACDEQI-DLISRYOISA-N

> <PUBCHEM_XLOGP3_AA>
6.1

> <PUBCHEM_EXACT_MASS>
601.268905

> <PUBCHEM_MOLECULAR_FORMULA>
C36H35N5O4

> <PUBCHEM_MOLECULAR_WEIGHT>
601.6942

> <PUBCHEM_OPENEYE_CAN_SMILES>
CC(C1=CC=CC2=CC=CC=C21)NC(=O)N3C(C(C3=O)CC4=CC(=NC=C4)N)CN(C(C)C5=CC=CC6=CC=CC=C65)C(=O)O

> <PUBCHEM_OPENEYE_ISO_SMILES>
C[C@H](C1=CC=CC2=CC=CC=C21)NC(=O)N3[C@@H]([C@H](C3=O)CC4=CC(=NC=C4)N)CN([C@H](C)C5=CC=CC6=CC=CC=C65)C(=O)O

> <PUBCHEM_CACTVS_TPSA>
129

> <PUBCHEM_MONOISOTOPIC_WEIGHT>
601.268905

> <PUBCHEM_TOTAL_CHARGE>
0

> <PUBCHEM_HEAVY_ATOM_COUNT>
45

> <PUBCHEM_ATOM_DEF_STEREO_COUNT>
4

> <PUBCHEM_ATOM_UDEF_STEREO_COUNT>
0

> <PUBCHEM_BOND_DEF_STEREO_COUNT>
0

> <PUBCHEM_BOND_UDEF_STEREO_COUNT>
0

> <PUBCHEM_ISOTOPIC_ATOM_COUNT>
0

> <PUBCHEM_COMPONENT_COUNT>
1

> <PUBCHEM_CACTVS_TAUTO_COUNT>
8

> <PUBCHEM_COORDINATE_TYPE>
1

> <PUBCHEM_BONDANNOTATIONS>
10  12  5

$$$$
