69173053
  CDK     0104151054

 27 27  0  0  0  0  0  0  0  0999 V2000
    2.8660    0.4400    0.0000 O   0  0  0  0  0  0  0  0  0  0  0  0
    2.8660    2.4400    0.0000 O   0  0  0  0  0  0  0  0  0  0  0  0
    5.4641    3.9400    0.0000 O   0  0  0  0  0  0  0  0  0  0  0  0
    3.7320    3.9400    0.0000 O   0  0  0  0  0  0  0  0  0  0  0  0
    2.8660   -4.5600    0.0000 N   0  0  0  0  0  0  0  0  0  0  0  0
    3.7320    1.9400    0.0000 C   0  0  1  0  0  0  0  0  0  0  0  0
    3.7320    0.9400    0.0000 C   0  0  0  0  0  0  0  0  0  0  0  0
    4.5981    2.4400    0.0000 C   0  0  0  0  0  0  0  0  0  0  0  0
    2.8660   -0.5600    0.0000 C   0  0  0  0  0  0  0  0  0  0  0  0
    4.5981    3.4400    0.0000 C   0  0  0  0  0  0  0  0  0  0  0  0
    3.7320   -1.0600    0.0000 C   0  0  0  0  0  0  0  0  0  0  0  0
    2.0000   -1.0600    0.0000 C   0  0  0  0  0  0  0  0  0  0  0  0
    3.7320   -2.0600    0.0000 C   0  0  0  0  0  0  0  0  0  0  0  0
    2.0000   -2.0600    0.0000 C   0  0  0  0  0  0  0  0  0  0  0  0
    2.8660   -2.5600    0.0000 C   0  0  0  0  0  0  0  0  0  0  0  0
    2.8660   -3.5600    0.0000 C   0  0  0  0  0  0  0  0  0  0  0  0
    3.7320    2.5600    0.0000 H   0  0  0  0  0  0  0  0  0  0  0  0
    3.9441    0.3574    0.0000 H   0  0  0  0  0  0  0  0  0  0  0  0
    4.3426    1.0477    0.0000 H   0  0  0  0  0  0  0  0  0  0  0  0
    4.8101    1.8574    0.0000 H   0  0  0  0  0  0  0  0  0  0  0  0
    5.2087    2.5477    0.0000 H   0  0  0  0  0  0  0  0  0  0  0  0
    2.8660    3.0600    0.0000 H   0  0  0  0  0  0  0  0  0  0  0  0
    4.2690   -0.7500    0.0000 H   0  0  0  0  0  0  0  0  0  0  0  0
    1.4631   -0.7500    0.0000 H   0  0  0  0  0  0  0  0  0  0  0  0
    4.2690   -2.3700    0.0000 H   0  0  0  0  0  0  0  0  0  0  0  0
    1.4631   -2.3700    0.0000 H   0  0  0  0  0  0  0  0  0  0  0  0
    5.4641    4.5600    0.0000 H   0  0  0  0  0  0  0  0  0  0  0  0
  1  7  1  0  0  0  0 
  1  9  1  0  0  0  0 
  6  2  1  6  0  0  0 
  2 22  1  0  0  0  0 
  3 10  1  0  0  0  0 
  3 27  1  0  0  0  0 
  4 10  2  0  0  0  0 
  5 16  3  0  0  0  0 
  6  7  1  0  0  0  0 
  6  8  1  0  0  0  0 
  6 17  1  0  0  0  0 
  7 18  1  0  0  0  0 
  7 19  1  0  0  0  0 
  8 10  1  0  0  0  0 
  8 20  1  0  0  0  0 
  8 21  1  0  0  0  0 
  9 11  2  0  0  0  0 
  9 12  1  0  0  0  0 
 11 13  1  0  0  0  0 
 11 23  1  0  0  0  0 
 12 14  2  0  0  0  0 
 12 24  1  0  0  0  0 
 13 15  2  0  0  0  0 
 13 25  1  0  0  0  0 
 14 15  1  0  0  0  0 
 14 26  1  0  0  0  0 
 15 16  1  0  0  0  0 
M  END
> <cdk:Title>
69173053

> <cdk:Remark>
null

> <PUBCHEM_COMPOUND_CID>
69173053

> <PUBCHEM_COMPOUND_CANONICALIZED>
1

> <PUBCHEM_CACTVS_COMPLEXITY>
275

> <PUBCHEM_CACTVS_HBOND_ACCEPTOR>
5

> <PUBCHEM_CACTVS_HBOND_DONOR>
2

> <PUBCHEM_CACTVS_ROTATABLE_BOND>
5

> <PUBCHEM_CACTVS_SUBSKEYS>
AAADccByOAAAAAAAAAAAAAAAAAAAAAAAAAAwAAAAAAAAAAABAAAAHgAACAAADBShmAIwDoAABgCYBiDSCAAiCAAgIAAIiAEGCIgNtjaEMRqCeCCl4BELqA/CwAAOIAAAAAAAAABAAAAAAAAAAAAAAAAAAA==

> <PUBCHEM_IUPAC_OPENEYE_NAME>
(3R)-4-(4-cyanophenoxy)-3-hydroxy-butanoic acid

> <PUBCHEM_IUPAC_CAS_NAME>
(3R)-4-(4-cyanophenoxy)-3-hydroxybutanoic acid

> <PUBCHEM_IUPAC_NAME>
(3R)-4-(4-cyanophenoxy)-3-hydroxybutanoic acid

> <PUBCHEM_IUPAC_SYSTEMATIC_NAME>
(3R)-4-(4-cyanophenoxy)-3-oxidanyl-butanoic acid

> <PUBCHEM_IUPAC_TRADITIONAL_NAME>
(3R)-4-(4-cyanophenoxy)-3-hydroxy-butyric acid

> <PUBCHEM_IUPAC_INCHI>
InChI=1S/C11H11NO4/c12-6-8-1-3-10(4-2-8)16-7-9(13)5-11(14)15/h1-4,9,13H,5,7H2,(H,14,15)/t9-/m1/s1

> <PUBCHEM_IUPAC_INCHIKEY>
ZLTPAIXSMORUQM-SECBINFHSA-N

> <PUBCHEM_XLOGP3_AA>
0.5

> <PUBCHEM_EXACT_MASS>
221.068808

> <PUBCHEM_MOLECULAR_FORMULA>
C11H11NO4

> <PUBCHEM_MOLECULAR_WEIGHT>
221.20934

> <PUBCHEM_OPENEYE_CAN_SMILES>
C1=CC(=CC=C1C#N)OCC(CC(=O)O)O

> <PUBCHEM_OPENEYE_ISO_SMILES>
C1=CC(=CC=C1C#N)OC[C@@H](CC(=O)O)O

> <PUBCHEM_CACTVS_TPSA>
90.6

> <PUBCHEM_MONOISOTOPIC_WEIGHT>
221.068808

> <PUBCHEM_TOTAL_CHARGE>
0

> <PUBCHEM_HEAVY_ATOM_COUNT>
16

> <PUBCHEM_ATOM_DEF_STEREO_COUNT>
1

> <PUBCHEM_ATOM_UDEF_STEREO_COUNT>
0

> <PUBCHEM_BOND_DEF_STEREO_COUNT>
0

> <PUBCHEM_BOND_UDEF_STEREO_COUNT>
0

> <PUBCHEM_ISOTOPIC_ATOM_COUNT>
0

> <PUBCHEM_COMPONENT_COUNT>
1

> <PUBCHEM_CACTVS_TAUTO_COUNT>
1

> <PUBCHEM_COORDINATE_TYPE>
1

> <PUBCHEM_BONDANNOTATIONS>
11  13  8

$$$$
