57192269
  CDK     0104150955

  9  9  0  0  0  0  0  0  0  0999 V2000
    2.8090   -0.1144    0.0000 N   0  0  0  0  0  0  0  0  0  0  0  0
    2.8090   -1.1144    0.0000 N   0  0  0  0  0  0  0  0  0  0  0  0
    3.6180    0.4734    0.0000 N   0  0  0  0  0  0  0  0  0  0  0  0
    3.3090    1.4244    0.0000 N   0  0  0  0  0  0  0  0  0  0  0  0
    2.0000    0.4734    0.0000 C   0  0  0  0  0  0  0  0  0  0  0  0
    2.3090    1.4244    0.0000 C   0  0  0  0  0  0  0  0  0  0  0  0
    1.4103    0.2818    0.0000 H   0  0  0  0  0  0  0  0  0  0  0  0
    2.2721   -1.4244    0.0000 H   0  0  0  0  0  0  0  0  0  0  0  0
    3.3460   -1.4244    0.0000 H   0  0  0  0  0  0  0  0  0  0  0  0
  1  2  1  0  0  0  0 
  1  3  1  0  0  0  0 
  1  5  1  0  0  0  0 
  2  8  1  0  0  0  0 
  2  9  1  0  0  0  0 
  3  4  2  0  0  0  0 
  4  6  1  0  0  0  0 
  5  6  2  0  0  0  0 
  5  7  1  0  0  0  0 
M  CHG  1   6   1
M  END
> <cdk:Title>
57192269

> <cdk:Remark>
null

> <PUBCHEM_COMPOUND_CID>
57192269

> <PUBCHEM_COMPOUND_CANONICALIZED>
1

> <PUBCHEM_CACTVS_COMPLEXITY>
44.8

> <PUBCHEM_CACTVS_HBOND_ACCEPTOR>
3

> <PUBCHEM_CACTVS_HBOND_DONOR>
1

> <PUBCHEM_CACTVS_ROTATABLE_BOND>
0

> <PUBCHEM_CACTVS_SUBSKEYS>
AAADcQBDgAAAAAAAAAAAAAAAAAAAAWAAAAAAAAAAAAAAAAABgAAAHAAYAAAAAADBAgQsgBACAACiABAnQAAABAQAkgAQIAAQMAAAQAAAAAAAAAAAAAAAAAAAAAAAAAAAAAAAAAAAAAAAAAAAAAAAAAAAAA==

> <PUBCHEM_IUPAC_INCHI>
InChI=1S/C2H3N4/c3-6-2-1-4-5-6/h2H,3H2/q+1

> <PUBCHEM_IUPAC_INCHIKEY>
KMIXXXKYJUKARB-UHFFFAOYSA-N

> <PUBCHEM_XLOGP3_AA>
-0.6

> <PUBCHEM_EXACT_MASS>
83.035771

> <PUBCHEM_MOLECULAR_FORMULA>
C2H3N4+

> <PUBCHEM_MOLECULAR_WEIGHT>
83.07202

> <PUBCHEM_OPENEYE_CAN_SMILES>
C1=[C+]N=NN1N

> <PUBCHEM_OPENEYE_ISO_SMILES>
C1=[C+]N=NN1N

> <PUBCHEM_CACTVS_TPSA>
56.7

> <PUBCHEM_MONOISOTOPIC_WEIGHT>
83.035771

> <PUBCHEM_TOTAL_CHARGE>
1

> <PUBCHEM_HEAVY_ATOM_COUNT>
6

> <PUBCHEM_ATOM_DEF_STEREO_COUNT>
0

> <PUBCHEM_ATOM_UDEF_STEREO_COUNT>
0

> <PUBCHEM_BOND_DEF_STEREO_COUNT>
0

> <PUBCHEM_BOND_UDEF_STEREO_COUNT>
0

> <PUBCHEM_ISOTOPIC_ATOM_COUNT>
0

> <PUBCHEM_COMPONENT_COUNT>
1

> <PUBCHEM_CACTVS_TAUTO_COUNT>
1

> <PUBCHEM_COORDINATE_TYPE>
1

> <PUBCHEM_BONDANNOTATIONS>
1  3  8

$$$$
57192269
  CDK     0104150955

  9  9  0  0  0  0  0  0  0  0999 V2000
    2.8090   -0.1144    0.0000 N   0  0  0  0  0  0  0  0  0  0  0  0
    2.8090   -1.1144    0.0000 N   0  0  0  0  0  0  0  0  0  0  0  0
    3.6180    0.4734    0.0000 N   0  0  0  0  0  0  0  0  0  0  0  0
    3.3090    1.4244    0.0000 N   0  0  0  0  0  0  0  0  0  0  0  0
    2.0000    0.4734    0.0000 C   0  0  0  0  0  0  0  0  0  0  0  0
    2.3090    1.4244    0.0000 C   0  0  0  0  0  0  0  0  0  0  0  0
    1.4103    0.2818    0.0000 H   0  0  0  0  0  0  0  0  0  0  0  0
    2.2721   -1.4244    0.0000 H   0  0  0  0  0  0  0  0  0  0  0  0
    3.3460   -1.4244    0.0000 H   0  0  0  0  0  0  0  0  0  0  0  0
  1  2  1  0  0  0  0 
  1  3  1  0  0  0  0 
  1  5  1  0  0  0  0 
  2  8  1  0  0  0  0 
  2  9  1  0  0  0  0 
  3  4  2  0  0  0  0 
  4  6  1  0  0  0  0 
  5  6  2  0  0  0  0 
  5  7  1  0  0  0  0 
M  CHG  1   6   1
M  END
> <cdk:Title>
57192269

> <cdk:Remark>
null

> <PUBCHEM_COMPOUND_CID>
57192269

> <PUBCHEM_COMPOUND_CANONICALIZED>
1

> <PUBCHEM_CACTVS_COMPLEXITY>
44.8

> <PUBCHEM_CACTVS_HBOND_ACCEPTOR>
3

> <PUBCHEM_CACTVS_HBOND_DONOR>
1

> <PUBCHEM_CACTVS_ROTATABLE_BOND>
0

> <PUBCHEM_CACTVS_SUBSKEYS>
AAADcQBDgAAAAAAAAAAAAAAAAAAAAWAAAAAAAAAAAAAAAAABgAAAHAAYAAAAAADBAgQsgBACAACiABAnQAAABAQAkgAQIAAQMAAAQAAAAAAAAAAAAAAAAAAAAAAAAAAAAAAAAAAAAAAAAAAAAAAAAAAAAA==

> <PUBCHEM_IUPAC_INCHI>
InChI=1S/C2H3N4/c3-6-2-1-4-5-6/h2H,3H2/q+1

> <PUBCHEM_IUPAC_INCHIKEY>
KMIXXXKYJUKARB-UHFFFAOYSA-N

> <PUBCHEM_XLOGP3_AA>
-0.6

> <PUBCHEM_EXACT_MASS>
83.035771

> <PUBCHEM_MOLECULAR_FORMULA>
C2H3N4+

> <PUBCHEM_MOLECULAR_WEIGHT>
83.07202

> <PUBCHEM_OPENEYE_CAN_SMILES>
C1=[C+]N=NN1N

> <PUBCHEM_OPENEYE_ISO_SMILES>
C1=[C+]N=NN1N

> <PUBCHEM_CACTVS_TPSA>
56.7

> <PUBCHEM_MONOISOTOPIC_WEIGHT>
83.035771

> <PUBCHEM_TOTAL_CHARGE>
1

> <PUBCHEM_HEAVY_ATOM_COUNT>
6

> <PUBCHEM_ATOM_DEF_STEREO_COUNT>
0

> <PUBCHEM_ATOM_UDEF_STEREO_COUNT>
0

> <PUBCHEM_BOND_DEF_STEREO_COUNT>
0

> <PUBCHEM_BOND_UDEF_STEREO_COUNT>
0

> <PUBCHEM_ISOTOPIC_ATOM_COUNT>
0

> <PUBCHEM_COMPONENT_COUNT>
1

> <PUBCHEM_CACTVS_TAUTO_COUNT>
1

> <PUBCHEM_COORDINATE_TYPE>
1

> <PUBCHEM_BONDANNOTATIONS>
1  3  8

$$$$
