
  CDK     0202151410

 17 18  0  0  0  0  0  0  0  0999 V2000
    3.5827   -0.8988    0.0000 N   0  0  0  0  0  0  0  0  0  0  0  0
    7.9128    0.6012    0.0000 N   0  0  0  0  0  0  0  0  0  0  0  0
    4.4487   -0.3988    0.0000 C   0  0  0  0  0  0  0  0  0  0  0  0
    7.0468    1.1012    0.0000 C   0  0  3  0  0  0  0  0  0  0  0  0
    6.1808    0.6012    0.0000 C   0  0  0  0  0  0  0  0  0  0  0  0
    5.3147   -0.8988    0.0000 C   0  0  0  0  0  0  0  0  0  0  0  0
    4.4487    0.6012    0.0000 C   0  0  0  0  0  0  0  0  0  0  0  0
    8.7788    1.1012    0.0000 C   0  0  0  0  0  0  0  0  0  0  0  0
    6.1808   -0.3988    0.0000 C   0  0  0  0  0  0  0  0  0  0  0  0
    5.3147    1.1012    0.0000 C   0  0  0  0  0  0  0  0  0  0  0  0
    7.0468    2.1012    0.0000 C   0  0  0  0  0  0  0  0  0  0  0  0
    9.6448    0.6012    0.0000 C   0  0  0  0  0  0  0  0  0  0  0  0
   10.5109    1.1012    0.0000 C   0  0  0  0  0  0  0  0  0  0  0  0
   11.3769    0.6012    0.0000 C   0  0  0  0  0  0  0  0  0  0  0  0
    9.6448   -0.3988    0.0000 C   0  0  0  0  0  0  0  0  0  0  0  0
   11.3769   -0.3988    0.0000 C   0  0  0  0  0  0  0  0  0  0  0  0
   10.5109   -0.8988    0.0000 C   0  0  0  0  0  0  0  0  0  0  0  0
  1  3  1  0  0  0  0 
  2  4  1  0  0  0  0 
  2  8  1  0  0  0  0 
  3  6  1  0  0  0  0 
  3  7  1  0  0  0  0 
  4  5  1  0  0  0  0 
  4 11  1  0  0  0  0 
  5  9  1  0  0  0  0 
  5 10  1  0  0  0  0 
  6  9  1  0  0  0  0 
  7 10  1  0  0  0  0 
  8 12  1  0  0  0  0 
 12 13  1  0  0  0  0 
 12 15  1  0  0  0  0 
 13 14  1  0  0  0  0 
 14 16  1  0  0  0  0 
 15 17  1  0  0  0  0 
 16 17  1  0  0  0  0 
M  END
> <PUBCHEM_COMPOUND_CID>
48826350

$$$$

  CDK     0202151410

 17 17  0  0  0  0  0  0  0  0999 V2000
    4.8198   -1.6307    0.0000 F   0  0  0  0  0  0  0  0  0  0  0  0
    3.0878   -2.6307    0.0000 N   0  0  3  0  0  0  0  0  0  0  0  0
    5.4836   -3.6307    0.0000 N   0  0  0  0  0  0  0  0  0  0  0  0
    3.0878    1.3693    0.0000 N   0  0  0  0  0  0  0  0  0  0  0  0
    3.9538   -3.1307    0.0000 C   0  0  3  0  0  0  0  0  0  0  0  0
    3.9538   -4.1307    0.0000 C   0  0  3  0  0  0  0  0  0  0  0  0
    4.9000   -2.8260    0.0000 C   0  0  0  0  0  0  0  0  0  0  0  0
    2.2218   -3.1307    0.0000 C   0  0  0  0  0  0  0  0  0  0  0  0
    2.2218   -4.1307    0.0000 C   0  0  0  0  0  0  0  0  0  0  0  0
    3.0878   -1.6307    0.0000 C   0  0  0  0  0  0  0  0  0  0  0  0
    3.9538   -1.1307    0.0000 C   0  0  0  0  0  0  0  0  0  0  0  0
    2.2218   -1.1307    0.0000 C   0  0  0  0  0  0  0  0  0  0  0  0
    3.0878    0.3693    0.0000 C   0  0  0  0  0  0  0  0  0  0  0  0
    3.9538   -0.1307    0.0000 C   0  0  0  0  0  0  0  0  0  0  0  0
    2.2218   -0.1307    0.0000 C   0  0  0  0  0  0  0  0  0  0  0  0
    2.2788    1.9571    0.0000 C   0  0  0  0  0  0  0  0  0  0  0  0
    3.8968    1.9571    0.0000 C   0  0  0  0  0  0  0  0  0  0  0  0
  1 11  1  0  0  0  0 
  2  5  1  0  0  0  0 
  2  8  1  0  0  0  0 
  2 10  1  0  0  0  0 
  3  7  1  0  0  0  0 
  4 13  1  0  0  0  0 
  4 16  1  0  0  0  0 
  4 17  1  0  0  0  0 
  5  6  1  0  0  0  0 
  5  7  1  0  0  0  0 
  8  9  1  0  0  0  0 
 10 11  1  0  0  0  0 
 10 12  1  0  0  0  0 
 11 14  1  0  0  0  0 
 12 15  1  0  0  0  0 
 13 14  1  0  0  0  0 
 13 15  1  0  0  0  0 
M  END
> <PUBCHEM_COMPOUND_CID>
69067313

$$$$

  CDK     0202151410

 16 18  0  0  0  0  0  0  0  0999 V2000
    7.0120   -1.3769    0.0000 C   0  0  2  0  0  0  0  0  0  0  0  0
    7.8781   -0.8769    0.0000 C   0  0  2  0  0  0  0  0  0  0  0  0
    6.1460   -0.8769    0.0000 C   0  0  1  0  0  0  0  0  0  0  0  0
    6.1460    0.1231    0.0000 C   0  0  2  0  0  0  0  0  0  0  0  0
    7.8781    0.1231    0.0000 C   0  0  0  0  0  0  0  0  0  0  0  0
    7.0120    0.6231    0.0000 C   0  0  0  0  0  0  0  0  0  0  0  0
    7.2212   -2.3487    0.0000 C   0  0  0  0  0  0  0  0  0  0  0  0
    8.6151   -1.5440    0.0000 C   0  0  0  0  0  0  0  0  0  0  0  0
    5.2521   -1.4116    0.0000 C   0  0  0  0  0  0  0  0  0  0  0  0
    8.2100   -2.4518    0.0000 C   0  0  0  0  0  0  0  0  0  0  0  0
    8.7441   -0.3769    0.0000 C   0  0  0  0  0  0  0  0  0  0  0  0
    5.2521    0.6577    0.0000 C   0  0  0  0  0  0  0  0  0  0  0  0
    4.3460   -0.8977    0.0000 C   0  0  0  0  0  0  0  0  0  0  0  0
    4.3460    0.1439    0.0000 C   0  0  0  0  0  0  0  0  0  0  0  0
    9.6432   -1.4208    0.0000 C   0  0  0  0  0  0  0  0  0  0  0  0
    5.2772    1.7424    0.0000 C   0  0  0  0  0  0  0  0  0  0  0  0
  1  2  1  0  0  0  0 
  1  3  1  0  0  0  0 
  1  7  1  0  0  0  0 
  2  5  1  0  0  0  0 
  2  8  1  0  0  0  0 
  2 11  1  1  0  0  0 
  3  4  1  0  0  0  0 
  3  9  1  0  0  0  0 
  4  6  1  0  0  0  0 
  4 12  1  0  0  0  0 
  5  6  1  0  0  0  0 
  7 10  1  0  0  0  0 
  8 10  1  0  0  0  0 
  8 15  1  0  0  0  0 
  9 13  1  0  0  0  0 
 12 14  1  0  0  0  0 
 12 16  1  0  0  0  0 
 13 14  1  0  0  0  0 
M  END
> <PUBCHEM_COMPOUND_CID>
11539831

$$$$

  CDK     0202151410

 17 17  0  0  0  0  0  0  0  0999 V2000
    6.1808   -0.3512    0.0000 O   0  0  0  0  0  0  0  0  0  0  0  0
    3.5827    1.1488    0.0000 O   0  0  0  0  0  0  0  0  0  0  0  0
    4.4487   -0.3512    0.0000 N   0  0  0  0  0  0  0  0  0  0  0  0
    4.4487    2.6488    0.0000 N   0  0  0  0  0  0  0  0  0  0  0  0
    7.0468    1.1488    0.0000 C   0  0  0  0  0  0  0  0  0  0  0  0
    5.3147    1.1488    0.0000 C   0  0  0  0  0  0  0  0  0  0  0  0
    5.3147    0.1488    0.0000 C   0  0  0  0  0  0  0  0  0  0  0  0
    7.0468    0.1488    0.0000 C   0  0  0  0  0  0  0  0  0  0  0  0
    6.1808    1.6488    0.0000 C   0  0  0  0  0  0  0  0  0  0  0  0
    4.4487   -1.3512    0.0000 C   0  0  0  0  0  0  0  0  0  0  0  0
    7.9407    1.6834    0.0000 C   0  0  0  0  0  0  0  0  0  0  0  0
    7.9407   -0.3859    0.0000 C   0  0  0  0  0  0  0  0  0  0  0  0
    4.4487    1.6488    0.0000 C   0  0  0  0  0  0  0  0  0  0  0  0
    3.5827   -1.8512    0.0000 C   0  0  0  0  0  0  0  0  0  0  0  0
    5.3147   -1.8512    0.0000 C   0  0  0  0  0  0  0  0  0  0  0  0
    8.8468    0.1280    0.0000 C   0  0  0  0  0  0  0  0  0  0  0  0
    3.5827    3.1488    0.0000 C   0  0  0  0  0  0  0  0  0  0  0  0
  1  7  1  0  0  0  0 
  1  8  1  0  0  0  0 
  2 13  1  0  0  0  0 
  3  7  1  0  0  0  0 
  3 10  1  0  0  0  0 
  4 13  1  0  0  0  0 
  4 17  1  0  0  0  0 
  5  8  1  0  0  0  0 
  5  9  1  0  0  0  0 
  5 11  1  0  0  0  0 
  6  7  1  0  0  0  0 
  6  9  1  0  0  0  0 
  6 13  1  0  0  0  0 
  8 12  1  0  0  0  0 
 10 14  1  0  0  0  0 
 10 15  1  0  0  0  0 
 12 16  1  0  0  0  0 
M  END
> <PUBCHEM_COMPOUND_CID>
51368099

$$$$

  CDK     0202151410

 17 17  0  0  0  0  0  0  0  0999 V2000
    5.8198   -1.1081    0.0000 S   0  0  0  0  0  0  0  0  0  0  0  0
    5.5108    1.4610    0.0000 O   0  0  0  0  0  0  0  0  0  0  0  0
    3.7320   -1.1651    0.0000 N   0  0  0  0  0  0  0  0  0  0  0  0
    6.7709    0.2010    0.0000 N   0  0  0  0  0  0  0  0  0  0  0  0
    7.7171    0.5057    0.0000 N   0  0  0  0  0  0  0  0  0  0  0  0
    7.7171   -1.1038    0.0000 N   0  0  0  0  0  0  0  0  0  0  0  0
    4.5981   -1.6651    0.0000 C   0  0  0  0  0  0  0  0  0  0  0  0
    2.8660   -1.6651    0.0000 C   0  0  0  0  0  0  0  0  0  0  0  0
    4.5981   -2.6651    0.0000 C   0  0  2  0  0  0  0  0  0  0  0  0
    2.8660   -2.6651    0.0000 C   0  0  2  0  0  0  0  0  0  0  0  0
    4.2320   -0.2990    0.0000 C   0  0  2  0  0  0  0  0  0  0  0  0
    5.2320   -0.2990    0.0000 C   0  0  0  0  0  0  0  0  0  0  0  0
    3.7320    0.5670    0.0000 C   0  0  0  0  0  0  0  0  0  0  0  0
    5.8198    0.5100    0.0000 C   0  0  0  0  0  0  0  0  0  0  0  0
    4.2320    1.4330    0.0000 C   0  0  0  0  0  0  0  0  0  0  0  0
    2.7320    0.5670    0.0000 C   0  0  0  0  0  0  0  0  0  0  0  0
    6.7709   -0.7990    0.0000 C   0  0  0  0  0  0  0  0  0  0  0  0
  1 12  1  0  0  0  0 
  1 17  1  0  0  0  0 
  2 14  1  0  0  0  0 
  3  7  1  0  0  0  0 
  3  8  1  0  0  0  0 
 11  3  1  1  0  0  0 
  4  5  1  0  0  0  0 
  4 14  1  0  0  0  0 
  4 17  1  0  0  0  0 
  6 17  1  0  0  0  0 
  7  9  1  0  0  0  0 
  8 10  1  0  0  0  0 
 11 12  1  0  0  0  0 
 11 13  1  0  0  0  0 
 12 14  1  0  0  0  0 
 13 15  1  0  0  0  0 
 13 16  1  0  0  0  0 
M  CHG  1   3   1
M  END
> <PUBCHEM_COMPOUND_CID>
7293924

$$$$

  CDK     0202151410

 17 18  0  0  0  0  0  0  0  0999 V2000
    5.1613    2.2521    0.0000 O   0  0  0  0  0  0  0  0  0  0  0  0
    2.3660    1.8649    0.0000 O   0  0  0  0  0  0  0  0  0  0  0  0
    3.9538    2.6739    0.0000 O   0  0  0  0  0  0  0  0  0  0  0  0
    7.9383    0.9650    0.0000 N   0  0  0  0  0  0  0  0  0  0  0  0
    3.6750    0.9139    0.0000 N   0  0  0  0  0  0  0  0  0  0  0  0
    2.0570    0.9139    0.0000 N   0  0  0  0  0  0  0  0  0  0  0  0
    6.3203    0.9650    0.0000 C   0  0  0  0  0  0  0  0  0  0  0  0
    7.1293    1.5527    0.0000 C   0  0  0  0  0  0  0  0  0  0  0  0
    7.6293    0.0139    0.0000 C   0  0  0  0  0  0  0  0  0  0  0  0
    6.6293    0.0139    0.0000 C   0  0  0  0  0  0  0  0  0  0  0  0
    5.3692    1.2740    0.0000 C   0  0  0  0  0  0  0  0  0  0  0  0
    4.6261    0.6048    0.0000 C   0  0  0  0  0  0  0  0  0  0  0  0
    7.1293    2.5527    0.0000 C   0  0  0  0  0  0  0  0  0  0  0  0
    8.8894    1.2740    0.0000 C   0  0  0  0  0  0  0  0  0  0  0  0
    2.8660    0.3261    0.0000 C   0  0  0  0  0  0  0  0  0  0  0  0
    2.8660   -0.6739    0.0000 C   0  0  0  0  0  0  0  0  0  0  0  0
    3.3660    1.8649    0.0000 C   0  0  0  0  0  0  0  0  0  0  0  0
  1 11  1  0  0  0  0 
  2  6  1  0  0  0  0 
  2 17  1  0  0  0  0 
  3 17  1  0  0  0  0 
  4  8  1  0  0  0  0 
  4  9  1  0  0  0  0 
  4 14  1  0  0  0  0 
  5 12  1  0  0  0  0 
  5 15  1  0  0  0  0 
  5 17  1  0  0  0  0 
  6 15  1  0  0  0  0 
  7  8  1  0  0  0  0 
  7 10  1  0  0  0  0 
  7 11  1  0  0  0  0 
  8 13  1  0  0  0  0 
  9 10  1  0  0  0  0 
 11 12  1  0  0  0  0 
 15 16  1  0  0  0  0 
M  END
> <PUBCHEM_COMPOUND_CID>
56220661

$$$$

  CDK     0202151410

 17 18  0  0  0  0  0  0  0  0999 V2000
    9.2928   -2.6488    0.0000 O   0  0  0  0  0  0  0  0  0  0  0  0
    7.4562   -3.6433    0.0000 O   0  0  0  0  0  0  0  0  0  0  0  0
    8.4268    0.8512    0.0000 N   0  0  0  0  0  0  0  0  0  0  0  0
    8.4268   -1.1488    0.0000 N   0  0  0  0  0  0  0  0  0  0  0  0
    6.4781   -3.8512    0.0000 N   0  0  0  0  0  0  0  0  0  0  0  0
    7.5608    0.3512    0.0000 C   0  0  0  0  0  0  0  0  0  0  0  0
    9.2928    0.3512    0.0000 C   0  0  0  0  0  0  0  0  0  0  0  0
    7.5608   -0.6488    0.0000 C   0  0  0  0  0  0  0  0  0  0  0  0
    9.2928   -0.6488    0.0000 C   0  0  0  0  0  0  0  0  0  0  0  0
    8.4268    1.8512    0.0000 C   0  0  0  0  0  0  0  0  0  0  0  0
    8.4268   -2.1488    0.0000 C   0  0  0  0  0  0  0  0  0  0  0  0
    7.5608   -2.6488    0.0000 C   0  0  0  0  0  0  0  0  0  0  0  0
    6.6472   -2.2421    0.0000 C   0  0  0  0  0  0  0  0  0  0  0  0
    5.9781   -2.9852    0.0000 C   0  0  0  0  0  0  0  0  0  0  0  0
    4.9836   -2.8807    0.0000 C   0  0  0  0  0  0  0  0  0  0  0  0
    4.5768   -1.9671    0.0000 C   0  0  0  0  0  0  0  0  0  0  0  0
    4.3958   -3.6897    0.0000 C   0  0  0  0  0  0  0  0  0  0  0  0
  1 11  1  0  0  0  0 
  2  5  1  0  0  0  0 
  2 12  1  0  0  0  0 
  3  6  1  0  0  0  0 
  3  7  1  0  0  0  0 
  3 10  1  0  0  0  0 
  4  8  1  0  0  0  0 
  4  9  1  0  0  0  0 
  4 11  1  0  0  0  0 
  5 14  1  0  0  0  0 
  6  8  1  0  0  0  0 
  7  9  1  0  0  0  0 
 11 12  1  0  0  0  0 
 12 13  1  0  0  0  0 
 13 14  1  0  0  0  0 
 14 15  1  0  0  0  0 
 15 16  1  0  0  0  0 
 15 17  1  0  0  0  0 
M  END
> <PUBCHEM_COMPOUND_CID>
38487696

$$$$
