10446339
  CDK     1220141107

 40 42  0  0  0  0  0  0  0  0999 V2000
    4.3801    1.0537    0.0000 S   0  0  0  0  0  0  0  0  0  0  0  0
    3.8625   -0.8781    0.0000 O   0  0  0  0  0  0  0  0  0  0  0  0
    3.1554   -0.1710    0.0000 O   0  0  0  0  0  0  0  0  0  0  0  0
    6.0650   -1.4679    0.0000 N   0  0  0  0  0  0  0  0  0  0  0  0
    5.8062   -2.4339    0.0000 C   0  0  0  0  0  0  0  0  0  0  0  0
    4.8284   -0.6193    0.0000 C   0  0  3  0  0  0  0  0  0  0  0  0
    5.6944   -0.1193    0.0000 C   0  0  0  0  0  0  0  0  0  0  0  0
    4.0742   -3.4339    0.0000 C   0  0  0  0  0  0  0  0  0  0  0  0
    7.6382   -3.1927    0.0000 C   0  0  0  0  0  0  0  0  0  0  0  0
    3.5742   -2.5678    0.0000 C   0  0  0  0  0  0  0  0  0  0  0  0
    7.8970   -2.2268    0.0000 C   0  0  0  0  0  0  0  0  0  0  0  0
    4.1213    0.0878    0.0000 C   0  0  3  0  0  0  0  0  0  0  0  0
    3.6730    1.7608    0.0000 C   0  0  0  0  0  0  0  0  0  0  0  0
    2.4483    0.5361    0.0000 C   0  0  0  0  0  0  0  0  0  0  0  0
    3.9318    2.7268    0.0000 C   0  0  0  0  0  0  0  0  0  0  0  0
    2.7071    1.5020    0.0000 C   0  0  0  0  0  0  0  0  0  0  0  0
    3.2247    3.4339    0.0000 C   0  0  0  0  0  0  0  0  0  0  0  0
    2.0000    2.2091    0.0000 C   0  0  0  0  0  0  0  0  0  0  0  0
    2.2588    3.1750    0.0000 C   0  0  0  0  0  0  0  0  0  0  0  0
    5.8468   -3.0525    0.0000 H   0  0  0  0  0  0  0  0  0  0  0  0
    6.2762    0.0952    0.0000 H   0  0  0  0  0  0  0  0  0  0  0  0
    5.4312    0.4420    0.0000 H   0  0  0  0  0  0  0  0  0  0  0  0
    3.5372   -3.7439    0.0000 H   0  0  0  0  0  0  0  0  0  0  0  0
    4.3842   -3.9708    0.0000 H   0  0  0  0  0  0  0  0  0  0  0  0
    7.4261   -3.7753    0.0000 H   0  0  0  0  0  0  0  0  0  0  0  0
    8.2295   -3.3791    0.0000 H   0  0  0  0  0  0  0  0  0  0  0  0
    3.3035   -2.0100    0.0000 H   0  0  0  0  0  0  0  0  0  0  0  0
    3.0264   -2.8584    0.0000 H   0  0  0  0  0  0  0  0  0  0  0  0
    8.4883   -2.4132    0.0000 H   0  0  0  0  0  0  0  0  0  0  0  0
    8.1090   -1.6442    0.0000 H   0  0  0  0  0  0  0  0  0  0  0  0
    3.9608   -0.5111    0.0000 H   0  0  0  0  0  0  0  0  0  0  0  0
    3.7020   -1.4770    0.0000 H   0  0  0  0  0  0  0  0  0  0  0  0
    2.8867    0.9745    0.0000 H   0  0  0  0  0  0  0  0  0  0  0  0
    2.0099    0.9745    0.0000 H   0  0  0  0  0  0  0  0  0  0  0  0
    2.0099    0.0977    0.0000 H   0  0  0  0  0  0  0  0  0  0  0  0
    4.5307    2.8872    0.0000 H   0  0  0  0  0  0  0  0  0  0  0  0
    2.5466    0.9031    0.0000 H   0  0  0  0  0  0  0  0  0  0  0  0
    3.3852    4.0327    0.0000 H   0  0  0  0  0  0  0  0  0  0  0  0
    1.4011    2.0487    0.0000 H   0  0  0  0  0  0  0  0  0  0  0  0
    1.8204    3.6135    0.0000 H   0  0  0  0  0  0  0  0  0  0  0  0
  1 12  1  0  0  0  0 
  1 13  1  0  0  0  0 
  2  6  1  0  0  0  0 
  2 32  1  0  0  0  0 
  3 12  1  0  0  0  0 
  3 14  1  0  0  0  0 
  4  7  1  0  0  0  0 
  4 10  1  0  0  0  0 
  4 11  1  0  0  0  0 
  5  6  1  0  0  0  0 
  5  8  1  0  0  0  0 
  5  9  1  0  0  0  0 
  5 20  1  0  0  0  0 
  6  7  1  0  0  0  0 
  6 12  1  0  0  0  0 
  7 21  1  0  0  0  0 
  7 22  1  0  0  0  0 
  8 10  1  0  0  0  0 
  8 23  1  0  0  0  0 
  8 24  1  0  0  0  0 
  9 11  1  0  0  0  0 
  9 25  1  0  0  0  0 
  9 26  1  0  0  0  0 
 10 27  1  0  0  0  0 
 10 28  1  0  0  0  0 
 11 29  1  0  0  0  0 
 11 30  1  0  0  0  0 
 12 31  1  0  0  0  0 
 13 15  2  0  0  0  0 
 13 16  1  0  0  0  0 
 14 33  1  0  0  0  0 
 14 34  1  0  0  0  0 
 14 35  1  0  0  0  0 
 15 17  1  0  0  0  0 
 15 36  1  0  0  0  0 
 16 18  2  0  0  0  0 
 16 37  1  0  0  0  0 
 17 19  2  0  0  0  0 
 17 38  1  0  0  0  0 
 18 19  1  0  0  0  0 
 18 39  1  0  0  0  0 
 19 40  1  0  0  0  0 
M  END
> <cdk:Title>
10446339

> <cdk:Remark>
null

> <PUBCHEM_COMPOUND_CID>
10446339

> <PUBCHEM_COMPOUND_CANONICALIZED>
1

> <PUBCHEM_CACTVS_COMPLEXITY>
301

> <PUBCHEM_CACTVS_HBOND_ACCEPTOR>
4

> <PUBCHEM_CACTVS_HBOND_DONOR>
1

> <PUBCHEM_CACTVS_ROTATABLE_BOND>
4

> <PUBCHEM_CACTVS_SUBSKEYS>
AAADceByMABAAAAAAAAAAAAAAAAAAAAAAAA8WLEAAAAAAAABAAAAHgQACAAADUTl0AayAYMABgiAACBCAAACAAAgCBAIiBgIAIgLICKgkRCEYAAmgAC7iAewEAIOgAAAAAAAAAAAAAAAAAAAAAAAAAAAAA==

> <PUBCHEM_IUPAC_OPENEYE_NAME>
3-[methoxy(phenylsulfanyl)methyl]quinuclidin-3-ol

> <PUBCHEM_IUPAC_CAS_NAME>
3-[methoxy-(phenylthio)methyl]-1-azabicyclo[2.2.2]octan-3-ol

> <PUBCHEM_IUPAC_NAME>
3-[methoxy(phenylsulfanyl)methyl]-1-azabicyclo[2.2.2]octan-3-ol

> <PUBCHEM_IUPAC_SYSTEMATIC_NAME>
3-[methoxy(phenylsulfanyl)methyl]-1-azabicyclo[2.2.2]octan-3-ol

> <PUBCHEM_IUPAC_TRADITIONAL_NAME>
3-[methoxy-(phenylthio)methyl]quinuclidin-3-ol

> <PUBCHEM_IUPAC_INCHI>
InChI=1S/C15H21NO2S/c1-18-14(19-13-5-3-2-4-6-13)15(17)11-16-9-7-12(15)8-10-16/h2-6,12,14,17H,7-11H2,1H3

> <PUBCHEM_IUPAC_INCHIKEY>
SJCJHIPNDMDKNV-UHFFFAOYSA-N

> <PUBCHEM_XLOGP3_AA>
2.2

> <PUBCHEM_EXACT_MASS>
279.1293

> <PUBCHEM_MOLECULAR_FORMULA>
C15H21NO2S

> <PUBCHEM_MOLECULAR_WEIGHT>
279.39774

> <PUBCHEM_OPENEYE_CAN_SMILES>
COC(C1(CN2CCC1CC2)O)SC3=CC=CC=C3

> <PUBCHEM_OPENEYE_ISO_SMILES>
COC(C1(CN2CCC1CC2)O)SC3=CC=CC=C3

> <PUBCHEM_CACTVS_TPSA>
58

> <PUBCHEM_MONOISOTOPIC_WEIGHT>
279.1293

> <PUBCHEM_TOTAL_CHARGE>
0

> <PUBCHEM_HEAVY_ATOM_COUNT>
19

> <PUBCHEM_ATOM_DEF_STEREO_COUNT>
0

> <PUBCHEM_ATOM_UDEF_STEREO_COUNT>
2

> <PUBCHEM_BOND_DEF_STEREO_COUNT>
0

> <PUBCHEM_BOND_UDEF_STEREO_COUNT>
0

> <PUBCHEM_ISOTOPIC_ATOM_COUNT>
0

> <PUBCHEM_COMPONENT_COUNT>
1

> <PUBCHEM_CACTVS_TAUTO_COUNT>
1

> <PUBCHEM_COORDINATE_TYPE>
1

> <PUBCHEM_BONDANNOTATIONS>
13  15  8

$$$$
10446339
  CDK     1220141108

 40 42  0  0  0  0  0  0  0  0999 V2000
    4.3801    1.0537    0.0000 S   0  0  0  0  0  0  0  0  0  0  0  0
    3.8625   -0.8781    0.0000 O   0  0  0  0  0  0  0  0  0  0  0  0
    3.1554   -0.1710    0.0000 O   0  0  0  0  0  0  0  0  0  0  0  0
    6.0650   -1.4679    0.0000 N   0  0  0  0  0  0  0  0  0  0  0  0
    5.8062   -2.4339    0.0000 C   0  0  0  0  0  0  0  0  0  0  0  0
    4.8284   -0.6193    0.0000 C   0  0  3  0  0  0  0  0  0  0  0  0
    5.6944   -0.1193    0.0000 C   0  0  0  0  0  0  0  0  0  0  0  0
    4.0742   -3.4339    0.0000 C   0  0  0  0  0  0  0  0  0  0  0  0
    7.6382   -3.1927    0.0000 C   0  0  0  0  0  0  0  0  0  0  0  0
    3.5742   -2.5678    0.0000 C   0  0  0  0  0  0  0  0  0  0  0  0
    7.8970   -2.2268    0.0000 C   0  0  0  0  0  0  0  0  0  0  0  0
    4.1213    0.0878    0.0000 C   0  0  3  0  0  0  0  0  0  0  0  0
    3.6730    1.7608    0.0000 C   0  0  0  0  0  0  0  0  0  0  0  0
    2.4483    0.5361    0.0000 C   0  0  0  0  0  0  0  0  0  0  0  0
    3.9318    2.7268    0.0000 C   0  0  0  0  0  0  0  0  0  0  0  0
    2.7071    1.5020    0.0000 C   0  0  0  0  0  0  0  0  0  0  0  0
    3.2247    3.4339    0.0000 C   0  0  0  0  0  0  0  0  0  0  0  0
    2.0000    2.2091    0.0000 C   0  0  0  0  0  0  0  0  0  0  0  0
    2.2588    3.1750    0.0000 C   0  0  0  0  0  0  0  0  0  0  0  0
    5.8468   -3.0525    0.0000 H   0  0  0  0  0  0  0  0  0  0  0  0
    6.2762    0.0952    0.0000 H   0  0  0  0  0  0  0  0  0  0  0  0
    5.4312    0.4420    0.0000 H   0  0  0  0  0  0  0  0  0  0  0  0
    3.5372   -3.7439    0.0000 H   0  0  0  0  0  0  0  0  0  0  0  0
    4.3842   -3.9708    0.0000 H   0  0  0  0  0  0  0  0  0  0  0  0
    7.4261   -3.7753    0.0000 H   0  0  0  0  0  0  0  0  0  0  0  0
    8.2295   -3.3791    0.0000 H   0  0  0  0  0  0  0  0  0  0  0  0
    3.3035   -2.0100    0.0000 H   0  0  0  0  0  0  0  0  0  0  0  0
    3.0264   -2.8584    0.0000 H   0  0  0  0  0  0  0  0  0  0  0  0
    8.4883   -2.4132    0.0000 H   0  0  0  0  0  0  0  0  0  0  0  0
    8.1090   -1.6442    0.0000 H   0  0  0  0  0  0  0  0  0  0  0  0
    3.9608   -0.5111    0.0000 H   0  0  0  0  0  0  0  0  0  0  0  0
    3.7020   -1.4770    0.0000 H   0  0  0  0  0  0  0  0  0  0  0  0
    2.8867    0.9745    0.0000 H   0  0  0  0  0  0  0  0  0  0  0  0
    2.0099    0.9745    0.0000 H   0  0  0  0  0  0  0  0  0  0  0  0
    2.0099    0.0977    0.0000 H   0  0  0  0  0  0  0  0  0  0  0  0
    4.5307    2.8872    0.0000 H   0  0  0  0  0  0  0  0  0  0  0  0
    2.5466    0.9031    0.0000 H   0  0  0  0  0  0  0  0  0  0  0  0
    3.3852    4.0327    0.0000 H   0  0  0  0  0  0  0  0  0  0  0  0
    1.4011    2.0487    0.0000 H   0  0  0  0  0  0  0  0  0  0  0  0
    1.8204    3.6135    0.0000 H   0  0  0  0  0  0  0  0  0  0  0  0
  1 12  1  0  0  0  0 
  1 13  1  0  0  0  0 
  2  6  1  0  0  0  0 
  2 32  1  0  0  0  0 
  3 12  1  0  0  0  0 
  3 14  1  0  0  0  0 
  4  7  1  0  0  0  0 
  4 10  1  0  0  0  0 
  4 11  1  0  0  0  0 
  5  6  1  0  0  0  0 
  5  8  1  0  0  0  0 
  5  9  1  0  0  0  0 
  5 20  1  0  0  0  0 
  6  7  1  0  0  0  0 
  6 12  1  0  0  0  0 
  7 21  1  0  0  0  0 
  7 22  1  0  0  0  0 
  8 10  1  0  0  0  0 
  8 23  1  0  0  0  0 
  8 24  1  0  0  0  0 
  9 11  1  0  0  0  0 
  9 25  1  0  0  0  0 
  9 26  1  0  0  0  0 
 10 27  1  0  0  0  0 
 10 28  1  0  0  0  0 
 11 29  1  0  0  0  0 
 11 30  1  0  0  0  0 
 12 31  1  0  0  0  0 
 13 15  2  0  0  0  0 
 13 16  1  0  0  0  0 
 14 33  1  0  0  0  0 
 14 34  1  0  0  0  0 
 14 35  1  0  0  0  0 
 15 17  1  0  0  0  0 
 15 36  1  0  0  0  0 
 16 18  2  0  0  0  0 
 16 37  1  0  0  0  0 
 17 19  2  0  0  0  0 
 17 38  1  0  0  0  0 
 18 19  1  0  0  0  0 
 18 39  1  0  0  0  0 
 19 40  1  0  0  0  0 
M  END
> <cdk:Title>
10446339

> <cdk:Remark>
null

> <PUBCHEM_COMPOUND_CID>
10446339

> <PUBCHEM_COMPOUND_CANONICALIZED>
1

> <PUBCHEM_CACTVS_COMPLEXITY>
301

> <PUBCHEM_CACTVS_HBOND_ACCEPTOR>
4

> <PUBCHEM_CACTVS_HBOND_DONOR>
1

> <PUBCHEM_CACTVS_ROTATABLE_BOND>
4

> <PUBCHEM_CACTVS_SUBSKEYS>
AAADceByMABAAAAAAAAAAAAAAAAAAAAAAAA8WLEAAAAAAAABAAAAHgQACAAADUTl0AayAYMABgiAACBCAAACAAAgCBAIiBgIAIgLICKgkRCEYAAmgAC7iAewEAIOgAAAAAAAAAAAAAAAAAAAAAAAAAAAAA==

> <PUBCHEM_IUPAC_OPENEYE_NAME>
3-[methoxy(phenylsulfanyl)methyl]quinuclidin-3-ol

> <PUBCHEM_IUPAC_CAS_NAME>
3-[methoxy-(phenylthio)methyl]-1-azabicyclo[2.2.2]octan-3-ol

> <PUBCHEM_IUPAC_NAME>
3-[methoxy(phenylsulfanyl)methyl]-1-azabicyclo[2.2.2]octan-3-ol

> <PUBCHEM_IUPAC_SYSTEMATIC_NAME>
3-[methoxy(phenylsulfanyl)methyl]-1-azabicyclo[2.2.2]octan-3-ol

> <PUBCHEM_IUPAC_TRADITIONAL_NAME>
3-[methoxy-(phenylthio)methyl]quinuclidin-3-ol

> <PUBCHEM_IUPAC_INCHI>
InChI=1S/C15H21NO2S/c1-18-14(19-13-5-3-2-4-6-13)15(17)11-16-9-7-12(15)8-10-16/h2-6,12,14,17H,7-11H2,1H3

> <PUBCHEM_IUPAC_INCHIKEY>
SJCJHIPNDMDKNV-UHFFFAOYSA-N

> <PUBCHEM_XLOGP3_AA>
2.2

> <PUBCHEM_EXACT_MASS>
279.1293

> <PUBCHEM_MOLECULAR_FORMULA>
C15H21NO2S

> <PUBCHEM_MOLECULAR_WEIGHT>
279.39774

> <PUBCHEM_OPENEYE_CAN_SMILES>
COC(C1(CN2CCC1CC2)O)SC3=CC=CC=C3

> <PUBCHEM_OPENEYE_ISO_SMILES>
COC(C1(CN2CCC1CC2)O)SC3=CC=CC=C3

> <PUBCHEM_CACTVS_TPSA>
58

> <PUBCHEM_MONOISOTOPIC_WEIGHT>
279.1293

> <PUBCHEM_TOTAL_CHARGE>
0

> <PUBCHEM_HEAVY_ATOM_COUNT>
19

> <PUBCHEM_ATOM_DEF_STEREO_COUNT>
0

> <PUBCHEM_ATOM_UDEF_STEREO_COUNT>
2

> <PUBCHEM_BOND_DEF_STEREO_COUNT>
0

> <PUBCHEM_BOND_UDEF_STEREO_COUNT>
0

> <PUBCHEM_ISOTOPIC_ATOM_COUNT>
0

> <PUBCHEM_COMPONENT_COUNT>
1

> <PUBCHEM_CACTVS_TAUTO_COUNT>
1

> <PUBCHEM_COORDINATE_TYPE>
1

> <PUBCHEM_BONDANNOTATIONS>
13  15  8

$$$$
10446339
  CDK     1220141115

 40 42  0  0  0  0  0  0  0  0999 V2000
    4.3801    1.0537    0.0000 S   0  0  0  0  0  0  0  0  0  0  0  0
    3.8625   -0.8781    0.0000 O   0  0  0  0  0  0  0  0  0  0  0  0
    3.1554   -0.1710    0.0000 O   0  0  0  0  0  0  0  0  0  0  0  0
    6.0650   -1.4679    0.0000 N   0  0  0  0  0  0  0  0  0  0  0  0
    5.8062   -2.4339    0.0000 C   0  0  0  0  0  0  0  0  0  0  0  0
    4.8284   -0.6193    0.0000 C   0  0  3  0  0  0  0  0  0  0  0  0
    5.6944   -0.1193    0.0000 C   0  0  0  0  0  0  0  0  0  0  0  0
    4.0742   -3.4339    0.0000 C   0  0  0  0  0  0  0  0  0  0  0  0
    7.6382   -3.1927    0.0000 C   0  0  0  0  0  0  0  0  0  0  0  0
    3.5742   -2.5678    0.0000 C   0  0  0  0  0  0  0  0  0  0  0  0
    7.8970   -2.2268    0.0000 C   0  0  0  0  0  0  0  0  0  0  0  0
    4.1213    0.0878    0.0000 C   0  0  3  0  0  0  0  0  0  0  0  0
    3.6730    1.7608    0.0000 C   0  0  0  0  0  0  0  0  0  0  0  0
    2.4483    0.5361    0.0000 C   0  0  0  0  0  0  0  0  0  0  0  0
    3.9318    2.7268    0.0000 C   0  0  0  0  0  0  0  0  0  0  0  0
    2.7071    1.5020    0.0000 C   0  0  0  0  0  0  0  0  0  0  0  0
    3.2247    3.4339    0.0000 C   0  0  0  0  0  0  0  0  0  0  0  0
    2.0000    2.2091    0.0000 C   0  0  0  0  0  0  0  0  0  0  0  0
    2.2588    3.1750    0.0000 C   0  0  0  0  0  0  0  0  0  0  0  0
    5.8468   -3.0525    0.0000 H   0  0  0  0  0  0  0  0  0  0  0  0
    6.2762    0.0952    0.0000 H   0  0  0  0  0  0  0  0  0  0  0  0
    5.4312    0.4420    0.0000 H   0  0  0  0  0  0  0  0  0  0  0  0
    3.5372   -3.7439    0.0000 H   0  0  0  0  0  0  0  0  0  0  0  0
    4.3842   -3.9708    0.0000 H   0  0  0  0  0  0  0  0  0  0  0  0
    7.4261   -3.7753    0.0000 H   0  0  0  0  0  0  0  0  0  0  0  0
    8.2295   -3.3791    0.0000 H   0  0  0  0  0  0  0  0  0  0  0  0
    3.3035   -2.0100    0.0000 H   0  0  0  0  0  0  0  0  0  0  0  0
    3.0264   -2.8584    0.0000 H   0  0  0  0  0  0  0  0  0  0  0  0
    8.4883   -2.4132    0.0000 H   0  0  0  0  0  0  0  0  0  0  0  0
    8.1090   -1.6442    0.0000 H   0  0  0  0  0  0  0  0  0  0  0  0
    3.9608   -0.5111    0.0000 H   0  0  0  0  0  0  0  0  0  0  0  0
    3.7020   -1.4770    0.0000 H   0  0  0  0  0  0  0  0  0  0  0  0
    2.8867    0.9745    0.0000 H   0  0  0  0  0  0  0  0  0  0  0  0
    2.0099    0.9745    0.0000 H   0  0  0  0  0  0  0  0  0  0  0  0
    2.0099    0.0977    0.0000 H   0  0  0  0  0  0  0  0  0  0  0  0
    4.5307    2.8872    0.0000 H   0  0  0  0  0  0  0  0  0  0  0  0
    2.5466    0.9031    0.0000 H   0  0  0  0  0  0  0  0  0  0  0  0
    3.3852    4.0327    0.0000 H   0  0  0  0  0  0  0  0  0  0  0  0
    1.4011    2.0487    0.0000 H   0  0  0  0  0  0  0  0  0  0  0  0
    1.8204    3.6135    0.0000 H   0  0  0  0  0  0  0  0  0  0  0  0
  1 12  1  0  0  0  0 
  1 13  1  0  0  0  0 
  2  6  1  0  0  0  0 
  2 32  1  0  0  0  0 
  3 12  1  0  0  0  0 
  3 14  1  0  0  0  0 
  4  7  1  0  0  0  0 
  4 10  1  0  0  0  0 
  4 11  1  0  0  0  0 
  5  6  1  0  0  0  0 
  5  8  1  0  0  0  0 
  5  9  1  0  0  0  0 
  5 20  1  0  0  0  0 
  6  7  1  0  0  0  0 
  6 12  1  0  0  0  0 
  7 21  1  0  0  0  0 
  7 22  1  0  0  0  0 
  8 10  1  0  0  0  0 
  8 23  1  0  0  0  0 
  8 24  1  0  0  0  0 
  9 11  1  0  0  0  0 
  9 25  1  0  0  0  0 
  9 26  1  0  0  0  0 
 10 27  1  0  0  0  0 
 10 28  1  0  0  0  0 
 11 29  1  0  0  0  0 
 11 30  1  0  0  0  0 
 12 31  1  0  0  0  0 
 13 15  2  0  0  0  0 
 13 16  1  0  0  0  0 
 14 33  1  0  0  0  0 
 14 34  1  0  0  0  0 
 14 35  1  0  0  0  0 
 15 17  1  0  0  0  0 
 15 36  1  0  0  0  0 
 16 18  2  0  0  0  0 
 16 37  1  0  0  0  0 
 17 19  2  0  0  0  0 
 17 38  1  0  0  0  0 
 18 19  1  0  0  0  0 
 18 39  1  0  0  0  0 
 19 40  1  0  0  0  0 
M  END
> <cdk:Title>
10446339

> <cdk:Remark>
null

> <PUBCHEM_COMPOUND_CID>
10446339

> <PUBCHEM_COMPOUND_CANONICALIZED>
1

> <PUBCHEM_CACTVS_COMPLEXITY>
301

> <PUBCHEM_CACTVS_HBOND_ACCEPTOR>
4

> <PUBCHEM_CACTVS_HBOND_DONOR>
1

> <PUBCHEM_CACTVS_ROTATABLE_BOND>
4

> <PUBCHEM_CACTVS_SUBSKEYS>
AAADceByMABAAAAAAAAAAAAAAAAAAAAAAAA8WLEAAAAAAAABAAAAHgQACAAADUTl0AayAYMABgiAACBCAAACAAAgCBAIiBgIAIgLICKgkRCEYAAmgAC7iAewEAIOgAAAAAAAAAAAAAAAAAAAAAAAAAAAAA==

> <PUBCHEM_IUPAC_OPENEYE_NAME>
3-[methoxy(phenylsulfanyl)methyl]quinuclidin-3-ol

> <PUBCHEM_IUPAC_CAS_NAME>
3-[methoxy-(phenylthio)methyl]-1-azabicyclo[2.2.2]octan-3-ol

> <PUBCHEM_IUPAC_NAME>
3-[methoxy(phenylsulfanyl)methyl]-1-azabicyclo[2.2.2]octan-3-ol

> <PUBCHEM_IUPAC_SYSTEMATIC_NAME>
3-[methoxy(phenylsulfanyl)methyl]-1-azabicyclo[2.2.2]octan-3-ol

> <PUBCHEM_IUPAC_TRADITIONAL_NAME>
3-[methoxy-(phenylthio)methyl]quinuclidin-3-ol

> <PUBCHEM_IUPAC_INCHI>
InChI=1S/C15H21NO2S/c1-18-14(19-13-5-3-2-4-6-13)15(17)11-16-9-7-12(15)8-10-16/h2-6,12,14,17H,7-11H2,1H3

> <PUBCHEM_IUPAC_INCHIKEY>
SJCJHIPNDMDKNV-UHFFFAOYSA-N

> <PUBCHEM_XLOGP3_AA>
2.2

> <PUBCHEM_EXACT_MASS>
279.1293

> <PUBCHEM_MOLECULAR_FORMULA>
C15H21NO2S

> <PUBCHEM_MOLECULAR_WEIGHT>
279.39774

> <PUBCHEM_OPENEYE_CAN_SMILES>
COC(C1(CN2CCC1CC2)O)SC3=CC=CC=C3

> <PUBCHEM_OPENEYE_ISO_SMILES>
COC(C1(CN2CCC1CC2)O)SC3=CC=CC=C3

> <PUBCHEM_CACTVS_TPSA>
58

> <PUBCHEM_MONOISOTOPIC_WEIGHT>
279.1293

> <PUBCHEM_TOTAL_CHARGE>
0

> <PUBCHEM_HEAVY_ATOM_COUNT>
19

> <PUBCHEM_ATOM_DEF_STEREO_COUNT>
0

> <PUBCHEM_ATOM_UDEF_STEREO_COUNT>
2

> <PUBCHEM_BOND_DEF_STEREO_COUNT>
0

> <PUBCHEM_BOND_UDEF_STEREO_COUNT>
0

> <PUBCHEM_ISOTOPIC_ATOM_COUNT>
0

> <PUBCHEM_COMPONENT_COUNT>
1

> <PUBCHEM_CACTVS_TAUTO_COUNT>
1

> <PUBCHEM_COORDINATE_TYPE>
1

> <PUBCHEM_BONDANNOTATIONS>
13  15  8

$$$$
