16220171
  CDK     1220141107

 81 79  0  0  0  0  0  0  0  0999 V2000
    9.4282    4.6340    0.0000 F   0  0  0  0  0  0  0  0  0  0  0  0
    6.6962    4.6340    0.0000 F   0  0  0  0  0  0  0  0  0  0  0  0
    7.6962    6.3660    0.0000 F   0  0  0  0  0  0  0  0  0  0  0  0
    7.0622    4.0000    0.0000 F   0  0  0  0  0  0  0  0  0  0  0  0
    9.0622    4.0000    0.0000 F   0  0  0  0  0  0  0  0  0  0  0  0
    8.4282    6.3660    0.0000 F   0  0  0  0  0  0  0  0  0  0  0  0
   10.2942    5.1340    0.0000 F   0  0  0  0  0  0  0  0  0  0  0  0
    9.2942    6.8660    0.0000 F   0  0  0  0  0  0  0  0  0  0  0  0
    5.8301    5.1340    0.0000 F   0  0  0  0  0  0  0  0  0  0  0  0
    6.8301    6.8660    0.0000 F   0  0  0  0  0  0  0  0  0  0  0  0
    7.0622    3.0000    0.0000 F   0  0  0  0  0  0  0  0  0  0  0  0
    9.0622    3.0000    0.0000 F   0  0  0  0  0  0  0  0  0  0  0  0
    4.9641    5.6340    0.0000 F   0  0  0  0  0  0  0  0  0  0  0  0
    5.9641    7.3660    0.0000 F   0  0  0  0  0  0  0  0  0  0  0  0
    7.0622    2.0000    0.0000 F   0  0  0  0  0  0  0  0  0  0  0  0
    9.0622    2.0000    0.0000 F   0  0  0  0  0  0  0  0  0  0  0  0
   11.1603    5.6340    0.0000 F   0  0  0  0  0  0  0  0  0  0  0  0
   10.1603    7.3660    0.0000 F   0  0  0  0  0  0  0  0  0  0  0  0
   12.3923    7.5000    0.0000 F   0  0  0  0  0  0  0  0  0  0  0  0
   12.0263    6.1340    0.0000 F   0  0  0  0  0  0  0  0  0  0  0  0
   11.0263    7.8660    0.0000 F   0  0  0  0  0  0  0  0  0  0  0  0
    3.7320    7.5000    0.0000 F   0  0  0  0  0  0  0  0  0  0  0  0
    4.0981    6.1340    0.0000 F   0  0  0  0  0  0  0  0  0  0  0  0
    5.0981    7.8660    0.0000 F   0  0  0  0  0  0  0  0  0  0  0  0
    8.0622    0.0000    0.0000 F   0  0  0  0  0  0  0  0  0  0  0  0
    7.0622    1.0000    0.0000 F   0  0  0  0  0  0  0  0  0  0  0  0
    9.0622    1.0000    0.0000 F   0  0  0  0  0  0  0  0  0  0  0  0
    7.1962   14.6760    0.0000 O   0  0  0  0  0  0  0  0  0  0  0  0
    8.0622   10.1760    0.0000 O   0  0  0  0  0  0  0  0  0  0  0  0
    5.4641   11.6760    0.0000 O   0  0  0  0  0  0  0  0  0  0  0  0
    1.7320    9.2895    0.0000 O   0  0  0  0  0  0  0  0  0  0  0  0
    0.0000    8.2895    0.0000 O   0  0  0  0  0  0  0  0  0  0  0  0
    8.0622    5.0000    0.0000 N   0  0  0  0  0  0  0  0  0  0  0  0
    8.9282   15.6760    0.0000 N   0  0  0  0  0  0  0  0  0  0  0  0
    8.9282    5.5000    0.0000 C   0  0  0  0  0  0  0  0  0  0  0  0
    7.1962    5.5000    0.0000 C   0  0  0  0  0  0  0  0  0  0  0  0
    8.0622    4.0000    0.0000 C   0  0  0  0  0  0  0  0  0  0  0  0
    9.7942    6.0000    0.0000 C   0  0  0  0  0  0  0  0  0  0  0  0
    6.3301    6.0000    0.0000 C   0  0  0  0  0  0  0  0  0  0  0  0
    8.0622    3.0000    0.0000 C   0  0  0  0  0  0  0  0  0  0  0  0
    5.4641    6.5000    0.0000 C   0  0  0  0  0  0  0  0  0  0  0  0
    8.0622    2.0000    0.0000 C   0  0  0  0  0  0  0  0  0  0  0  0
   10.6603    6.5000    0.0000 C   0  0  0  0  0  0  0  0  0  0  0  0
    9.7942   16.1760    0.0000 C   0  0  0  0  0  0  0  0  0  0  0  0
   11.5263    7.0000    0.0000 C   0  0  0  0  0  0  0  0  0  0  0  0
    4.5981    7.0000    0.0000 C   0  0  0  0  0  0  0  0  0  0  0  0
    8.0622    1.0000    0.0000 C   0  0  0  0  0  0  0  0  0  0  0  0
    8.9282   14.6760    0.0000 C   0  0  0  0  0  0  0  0  0  0  0  0
    8.0622   14.1760    0.0000 C   0  0  3  0  0  0  0  0  0  0  0  0
   10.6603   16.6760    0.0000 C   0  0  0  0  0  0  0  0  0  0  0  0
    9.2942   17.0421    0.0000 C   0  0  0  0  0  0  0  0  0  0  0  0
   10.2942   15.3100    0.0000 C   0  0  0  0  0  0  0  0  0  0  0  0
    8.0622   13.1760    0.0000 C   0  0  0  0  0  0  0  0  0  0  0  0
    7.1962   12.6760    0.0000 C   0  0  0  0  0  0  0  0  0  0  0  0
    8.9282   12.6760    0.0000 C   0  0  0  0  0  0  0  0  0  0  0  0
    7.1962   11.6760    0.0000 C   0  0  0  0  0  0  0  0  0  0  0  0
    8.9282   11.6760    0.0000 C   0  0  0  0  0  0  0  0  0  0  0  0
    8.0622   11.1760    0.0000 C   0  0  0  0  0  0  0  0  0  0  0  0
    6.3301   11.1760    0.0000 C   0  0  0  0  0  0  0  0  0  0  0  0
    0.8660    8.7895    0.0000 C   0  0  0  0  0  0  0  0  0  0  0  0
    8.3913   15.9860    0.0000 H   0  0  0  0  0  0  0  0  0  0  0  0
    9.1402   14.0934    0.0000 H   0  0  0  0  0  0  0  0  0  0  0  0
    9.5388   14.7837    0.0000 H   0  0  0  0  0  0  0  0  0  0  0  0
    8.0622   14.7960    0.0000 H   0  0  0  0  0  0  0  0  0  0  0  0
    9.7573   15.0000    0.0000 H   0  0  0  0  0  0  0  0  0  0  0  0
   10.9703   16.1391    0.0000 H   0  0  0  0  0  0  0  0  0  0  0  0
   11.1972   16.9860    0.0000 H   0  0  0  0  0  0  0  0  0  0  0  0
   10.3503   17.2130    0.0000 H   0  0  0  0  0  0  0  0  0  0  0  0
    9.8312   17.3521    0.0000 H   0  0  0  0  0  0  0  0  0  0  0  0
    8.9842   17.5790    0.0000 H   0  0  0  0  0  0  0  0  0  0  0  0
    8.7573   16.7321    0.0000 H   0  0  0  0  0  0  0  0  0  0  0  0
   10.6042   14.7731    0.0000 H   0  0  0  0  0  0  0  0  0  0  0  0
   10.8312   15.6200    0.0000 H   0  0  0  0  0  0  0  0  0  0  0  0
    6.6592   12.9860    0.0000 H   0  0  0  0  0  0  0  0  0  0  0  0
    9.4651   12.9860    0.0000 H   0  0  0  0  0  0  0  0  0  0  0  0
    7.1962   15.2960    0.0000 H   0  0  0  0  0  0  0  0  0  0  0  0
    9.4651   11.3660    0.0000 H   0  0  0  0  0  0  0  0  0  0  0  0
    5.9316   10.7011    0.0000 H   0  0  0  0  0  0  0  0  0  0  0  0
    6.7286   10.7011    0.0000 H   0  0  0  0  0  0  0  0  0  0  0  0
    8.5991    9.8660    0.0000 H   0  0  0  0  0  0  0  0  0  0  0  0
    4.9272   11.3660    0.0000 H   0  0  0  0  0  0  0  0  0  0  0  0
  1 35  1  0  0  0  0 
  2 36  1  0  0  0  0 
  3 36  1  0  0  0  0 
  4 37  1  0  0  0  0 
  5 37  1  0  0  0  0 
  6 35  1  0  0  0  0 
  7 38  1  0  0  0  0 
  8 38  1  0  0  0  0 
  9 39  1  0  0  0  0 
 10 39  1  0  0  0  0 
 11 40  1  0  0  0  0 
 12 40  1  0  0  0  0 
 13 41  1  0  0  0  0 
 14 41  1  0  0  0  0 
 15 42  1  0  0  0  0 
 16 42  1  0  0  0  0 
 17 43  1  0  0  0  0 
 18 43  1  0  0  0  0 
 19 45  1  0  0  0  0 
 20 45  1  0  0  0  0 
 21 45  1  0  0  0  0 
 22 46  1  0  0  0  0 
 23 46  1  0  0  0  0 
 24 46  1  0  0  0  0 
 25 47  1  0  0  0  0 
 26 47  1  0  0  0  0 
 27 47  1  0  0  0  0 
 28 49  1  0  0  0  0 
 28 76  1  0  0  0  0 
 29 58  1  0  0  0  0 
 29 80  1  0  0  0  0 
 30 59  1  0  0  0  0 
 30 81  1  0  0  0  0 
 31 60  2  0  0  0  0 
 32 60  2  0  0  0  0 
 33 35  1  0  0  0  0 
 33 36  1  0  0  0  0 
 33 37  1  0  0  0  0 
 34 44  1  0  0  0  0 
 34 48  1  0  0  0  0 
 34 61  1  0  0  0  0 
 35 38  1  0  0  0  0 
 36 39  1  0  0  0  0 
 37 40  1  0  0  0  0 
 38 43  1  0  0  0  0 
 39 41  1  0  0  0  0 
 40 42  1  0  0  0  0 
 41 46  1  0  0  0  0 
 42 47  1  0  0  0  0 
 43 45  1  0  0  0  0 
 44 50  1  0  0  0  0 
 44 51  1  0  0  0  0 
 44 52  1  0  0  0  0 
 48 49  1  0  0  0  0 
 48 62  1  0  0  0  0 
 48 63  1  0  0  0  0 
 49 53  1  0  0  0  0 
 49 64  1  0  0  0  0 
 50 66  1  0  0  0  0 
 50 67  1  0  0  0  0 
 50 68  1  0  0  0  0 
 51 69  1  0  0  0  0 
 51 70  1  0  0  0  0 
 51 71  1  0  0  0  0 
 52 65  1  0  0  0  0 
 52 72  1  0  0  0  0 
 52 73  1  0  0  0  0 
 53 54  2  0  0  0  0 
 53 55  1  0  0  0  0 
 54 56  1  0  0  0  0 
 54 74  1  0  0  0  0 
 55 57  2  0  0  0  0 
 55 75  1  0  0  0  0 
 56 58  2  0  0  0  0 
 56 59  1  0  0  0  0 
 57 58  1  0  0  0  0 
 57 77  1  0  0  0  0 
 59 78  1  0  0  0  0 
 59 79  1  0  0  0  0 
M  END
> <cdk:Title>
16220171

> <cdk:Remark>
null

> <PUBCHEM_COMPOUND_CID>
16220171

> <PUBCHEM_COMPOUND_CANONICALIZED>
1

> <PUBCHEM_CACTVS_COMPLEXITY>
1040

> <PUBCHEM_CACTVS_HBOND_ACCEPTOR>
34

> <PUBCHEM_CACTVS_HBOND_DONOR>
4

> <PUBCHEM_CACTVS_ROTATABLE_BOND>
14

> <PUBCHEM_CACTVS_SUBSKEYS>
AAADceB7OcAAAAAAAAAAAAAAAAAAAAAAAAAwAAAAAAAAAAABAAAAHwAQCAAADJzhmBYyDoPAAgCIAiBCCAACAAAgIAAIiIAOCIgKNyKCkROEcAAl0BGYmAeQ4OQOIAACAAAIAABAAAQAABAAAAAAAAAAAA==

> <PUBCHEM_IUPAC_OPENEYE_NAME>
4-[2-(tert-butylamino)-1-hydroxy-ethyl]-2-(hydroxymethyl)phenol;carbon dioxide;1,1,2,2,3,3,4,4,4-nonafluoro-N,N-bis(1,1,2,2,3,3,4,4,4-nonafluorobutyl)butan-1-amine

> <PUBCHEM_IUPAC_CAS_NAME>
4-[2-(tert-butylamino)-1-hydroxyethyl]-2-(hydroxymethyl)phenol;carbon dioxide;1,1,2,2,3,3,4,4,4-nonafluoro-N,N-bis(1,1,2,2,3,3,4,4,4-nonafluorobutyl)-1-butanamine

> <PUBCHEM_IUPAC_NAME>
4-[2-(tert-butylamino)-1-hydroxyethyl]-2-(hydroxymethyl)phenol;carbon dioxide;1,1,2,2,3,3,4,4,4-nonafluoro-N,N-bis(1,1,2,2,3,3,4,4,4-nonafluorobutyl)butan-1-amine

> <PUBCHEM_IUPAC_SYSTEMATIC_NAME>
4-[2-(tert-butylamino)-1-oxidanyl-ethyl]-2-(hydroxymethyl)phenol;carbon dioxide;1,1,2,2,3,3,4,4,4-nonakis(fluoranyl)-N,N-bis[1,1,2,2,3,3,4,4,4-nonakis(fluoranyl)butyl]butan-1-amine

> <PUBCHEM_IUPAC_TRADITIONAL_NAME>
4-[2-(tert-butylamino)-1-hydroxy-ethyl]-2-methylol-phenol;carbon dioxide;tris(1,1,2,2,3,3,4,4,4-nonafluorobutyl)amine

> <PUBCHEM_IUPAC_INCHI>
InChI=1S/C13H21NO3.C12F27N.CO2/c1-13(2,3)14-7-12(17)9-4-5-11(16)10(6-9)8-15;13-1(14,7(25,26)27)4(19,20)10(34,35)40(11(36,37)5(21,22)2(15,16)8(28,29)30)12(38,39)6(23,24)3(17,18)9(31,32)33;2-1-3/h4-6,12,14-17H,7-8H2,1-3H3;;

> <PUBCHEM_IUPAC_INCHIKEY>
MZRGYLAYWOQZOL-UHFFFAOYSA-N

> <PUBCHEM_EXACT_MASS>
954.101934

> <PUBCHEM_MOLECULAR_FORMULA>
C26H21F27N2O5

> <PUBCHEM_MOLECULAR_WEIGHT>
954.412226

> <PUBCHEM_OPENEYE_CAN_SMILES>
CC(C)(C)NCC(C1=CC(=C(C=C1)O)CO)O.C(=O)=O.C(C(C(F)(F)F)(F)F)(C(N(C(C(C(C(F)(F)F)(F)F)(F)F)(F)F)C(C(C(C(F)(F)F)(F)F)(F)F)(F)F)(F)F)(F)F

> <PUBCHEM_OPENEYE_ISO_SMILES>
CC(C)(C)NCC(C1=CC(=C(C=C1)O)CO)O.C(=O)=O.C(C(C(F)(F)F)(F)F)(C(N(C(C(C(C(F)(F)F)(F)F)(F)F)(F)F)C(C(C(C(F)(F)F)(F)F)(F)F)(F)F)(F)F)(F)F

> <PUBCHEM_CACTVS_TPSA>
110

> <PUBCHEM_MONOISOTOPIC_WEIGHT>
954.101934

> <PUBCHEM_TOTAL_CHARGE>
0

> <PUBCHEM_HEAVY_ATOM_COUNT>
60

> <PUBCHEM_ATOM_DEF_STEREO_COUNT>
0

> <PUBCHEM_ATOM_UDEF_STEREO_COUNT>
1

> <PUBCHEM_BOND_DEF_STEREO_COUNT>
0

> <PUBCHEM_BOND_UDEF_STEREO_COUNT>
0

> <PUBCHEM_ISOTOPIC_ATOM_COUNT>
0

> <PUBCHEM_COMPONENT_COUNT>
3

> <PUBCHEM_CACTVS_TAUTO_COUNT>
3

> <PUBCHEM_COORDINATE_TYPE>
1

> <PUBCHEM_BONDANNOTATIONS>
49  28  3

$$$$
16220171
  CDK     1220141108

 81 79  0  0  0  0  0  0  0  0999 V2000
    9.4282    4.6340    0.0000 F   0  0  0  0  0  0  0  0  0  0  0  0
    6.6962    4.6340    0.0000 F   0  0  0  0  0  0  0  0  0  0  0  0
    7.6962    6.3660    0.0000 F   0  0  0  0  0  0  0  0  0  0  0  0
    7.0622    4.0000    0.0000 F   0  0  0  0  0  0  0  0  0  0  0  0
    9.0622    4.0000    0.0000 F   0  0  0  0  0  0  0  0  0  0  0  0
    8.4282    6.3660    0.0000 F   0  0  0  0  0  0  0  0  0  0  0  0
   10.2942    5.1340    0.0000 F   0  0  0  0  0  0  0  0  0  0  0  0
    9.2942    6.8660    0.0000 F   0  0  0  0  0  0  0  0  0  0  0  0
    5.8301    5.1340    0.0000 F   0  0  0  0  0  0  0  0  0  0  0  0
    6.8301    6.8660    0.0000 F   0  0  0  0  0  0  0  0  0  0  0  0
    7.0622    3.0000    0.0000 F   0  0  0  0  0  0  0  0  0  0  0  0
    9.0622    3.0000    0.0000 F   0  0  0  0  0  0  0  0  0  0  0  0
    4.9641    5.6340    0.0000 F   0  0  0  0  0  0  0  0  0  0  0  0
    5.9641    7.3660    0.0000 F   0  0  0  0  0  0  0  0  0  0  0  0
    7.0622    2.0000    0.0000 F   0  0  0  0  0  0  0  0  0  0  0  0
    9.0622    2.0000    0.0000 F   0  0  0  0  0  0  0  0  0  0  0  0
   11.1603    5.6340    0.0000 F   0  0  0  0  0  0  0  0  0  0  0  0
   10.1603    7.3660    0.0000 F   0  0  0  0  0  0  0  0  0  0  0  0
   12.3923    7.5000    0.0000 F   0  0  0  0  0  0  0  0  0  0  0  0
   12.0263    6.1340    0.0000 F   0  0  0  0  0  0  0  0  0  0  0  0
   11.0263    7.8660    0.0000 F   0  0  0  0  0  0  0  0  0  0  0  0
    3.7320    7.5000    0.0000 F   0  0  0  0  0  0  0  0  0  0  0  0
    4.0981    6.1340    0.0000 F   0  0  0  0  0  0  0  0  0  0  0  0
    5.0981    7.8660    0.0000 F   0  0  0  0  0  0  0  0  0  0  0  0
    8.0622    0.0000    0.0000 F   0  0  0  0  0  0  0  0  0  0  0  0
    7.0622    1.0000    0.0000 F   0  0  0  0  0  0  0  0  0  0  0  0
    9.0622    1.0000    0.0000 F   0  0  0  0  0  0  0  0  0  0  0  0
    7.1962   14.6760    0.0000 O   0  0  0  0  0  0  0  0  0  0  0  0
    8.0622   10.1760    0.0000 O   0  0  0  0  0  0  0  0  0  0  0  0
    5.4641   11.6760    0.0000 O   0  0  0  0  0  0  0  0  0  0  0  0
    1.7320    9.2895    0.0000 O   0  0  0  0  0  0  0  0  0  0  0  0
    0.0000    8.2895    0.0000 O   0  0  0  0  0  0  0  0  0  0  0  0
    8.0622    5.0000    0.0000 N   0  0  0  0  0  0  0  0  0  0  0  0
    8.9282   15.6760    0.0000 N   0  0  0  0  0  0  0  0  0  0  0  0
    8.9282    5.5000    0.0000 C   0  0  0  0  0  0  0  0  0  0  0  0
    7.1962    5.5000    0.0000 C   0  0  0  0  0  0  0  0  0  0  0  0
    8.0622    4.0000    0.0000 C   0  0  0  0  0  0  0  0  0  0  0  0
    9.7942    6.0000    0.0000 C   0  0  0  0  0  0  0  0  0  0  0  0
    6.3301    6.0000    0.0000 C   0  0  0  0  0  0  0  0  0  0  0  0
    8.0622    3.0000    0.0000 C   0  0  0  0  0  0  0  0  0  0  0  0
    5.4641    6.5000    0.0000 C   0  0  0  0  0  0  0  0  0  0  0  0
    8.0622    2.0000    0.0000 C   0  0  0  0  0  0  0  0  0  0  0  0
   10.6603    6.5000    0.0000 C   0  0  0  0  0  0  0  0  0  0  0  0
    9.7942   16.1760    0.0000 C   0  0  0  0  0  0  0  0  0  0  0  0
   11.5263    7.0000    0.0000 C   0  0  0  0  0  0  0  0  0  0  0  0
    4.5981    7.0000    0.0000 C   0  0  0  0  0  0  0  0  0  0  0  0
    8.0622    1.0000    0.0000 C   0  0  0  0  0  0  0  0  0  0  0  0
    8.9282   14.6760    0.0000 C   0  0  0  0  0  0  0  0  0  0  0  0
    8.0622   14.1760    0.0000 C   0  0  3  0  0  0  0  0  0  0  0  0
   10.6603   16.6760    0.0000 C   0  0  0  0  0  0  0  0  0  0  0  0
    9.2942   17.0421    0.0000 C   0  0  0  0  0  0  0  0  0  0  0  0
   10.2942   15.3100    0.0000 C   0  0  0  0  0  0  0  0  0  0  0  0
    8.0622   13.1760    0.0000 C   0  0  0  0  0  0  0  0  0  0  0  0
    7.1962   12.6760    0.0000 C   0  0  0  0  0  0  0  0  0  0  0  0
    8.9282   12.6760    0.0000 C   0  0  0  0  0  0  0  0  0  0  0  0
    7.1962   11.6760    0.0000 C   0  0  0  0  0  0  0  0  0  0  0  0
    8.9282   11.6760    0.0000 C   0  0  0  0  0  0  0  0  0  0  0  0
    8.0622   11.1760    0.0000 C   0  0  0  0  0  0  0  0  0  0  0  0
    6.3301   11.1760    0.0000 C   0  0  0  0  0  0  0  0  0  0  0  0
    0.8660    8.7895    0.0000 C   0  0  0  0  0  0  0  0  0  0  0  0
    8.3913   15.9860    0.0000 H   0  0  0  0  0  0  0  0  0  0  0  0
    9.1402   14.0934    0.0000 H   0  0  0  0  0  0  0  0  0  0  0  0
    9.5388   14.7837    0.0000 H   0  0  0  0  0  0  0  0  0  0  0  0
    8.0622   14.7960    0.0000 H   0  0  0  0  0  0  0  0  0  0  0  0
    9.7573   15.0000    0.0000 H   0  0  0  0  0  0  0  0  0  0  0  0
   10.9703   16.1391    0.0000 H   0  0  0  0  0  0  0  0  0  0  0  0
   11.1972   16.9860    0.0000 H   0  0  0  0  0  0  0  0  0  0  0  0
   10.3503   17.2130    0.0000 H   0  0  0  0  0  0  0  0  0  0  0  0
    9.8312   17.3521    0.0000 H   0  0  0  0  0  0  0  0  0  0  0  0
    8.9842   17.5790    0.0000 H   0  0  0  0  0  0  0  0  0  0  0  0
    8.7573   16.7321    0.0000 H   0  0  0  0  0  0  0  0  0  0  0  0
   10.6042   14.7731    0.0000 H   0  0  0  0  0  0  0  0  0  0  0  0
   10.8312   15.6200    0.0000 H   0  0  0  0  0  0  0  0  0  0  0  0
    6.6592   12.9860    0.0000 H   0  0  0  0  0  0  0  0  0  0  0  0
    9.4651   12.9860    0.0000 H   0  0  0  0  0  0  0  0  0  0  0  0
    7.1962   15.2960    0.0000 H   0  0  0  0  0  0  0  0  0  0  0  0
    9.4651   11.3660    0.0000 H   0  0  0  0  0  0  0  0  0  0  0  0
    5.9316   10.7011    0.0000 H   0  0  0  0  0  0  0  0  0  0  0  0
    6.7286   10.7011    0.0000 H   0  0  0  0  0  0  0  0  0  0  0  0
    8.5991    9.8660    0.0000 H   0  0  0  0  0  0  0  0  0  0  0  0
    4.9272   11.3660    0.0000 H   0  0  0  0  0  0  0  0  0  0  0  0
  1 35  1  0  0  0  0 
  2 36  1  0  0  0  0 
  3 36  1  0  0  0  0 
  4 37  1  0  0  0  0 
  5 37  1  0  0  0  0 
  6 35  1  0  0  0  0 
  7 38  1  0  0  0  0 
  8 38  1  0  0  0  0 
  9 39  1  0  0  0  0 
 10 39  1  0  0  0  0 
 11 40  1  0  0  0  0 
 12 40  1  0  0  0  0 
 13 41  1  0  0  0  0 
 14 41  1  0  0  0  0 
 15 42  1  0  0  0  0 
 16 42  1  0  0  0  0 
 17 43  1  0  0  0  0 
 18 43  1  0  0  0  0 
 19 45  1  0  0  0  0 
 20 45  1  0  0  0  0 
 21 45  1  0  0  0  0 
 22 46  1  0  0  0  0 
 23 46  1  0  0  0  0 
 24 46  1  0  0  0  0 
 25 47  1  0  0  0  0 
 26 47  1  0  0  0  0 
 27 47  1  0  0  0  0 
 28 49  1  0  0  0  0 
 28 76  1  0  0  0  0 
 29 58  1  0  0  0  0 
 29 80  1  0  0  0  0 
 30 59  1  0  0  0  0 
 30 81  1  0  0  0  0 
 31 60  2  0  0  0  0 
 32 60  2  0  0  0  0 
 33 35  1  0  0  0  0 
 33 36  1  0  0  0  0 
 33 37  1  0  0  0  0 
 34 44  1  0  0  0  0 
 34 48  1  0  0  0  0 
 34 61  1  0  0  0  0 
 35 38  1  0  0  0  0 
 36 39  1  0  0  0  0 
 37 40  1  0  0  0  0 
 38 43  1  0  0  0  0 
 39 41  1  0  0  0  0 
 40 42  1  0  0  0  0 
 41 46  1  0  0  0  0 
 42 47  1  0  0  0  0 
 43 45  1  0  0  0  0 
 44 50  1  0  0  0  0 
 44 51  1  0  0  0  0 
 44 52  1  0  0  0  0 
 48 49  1  0  0  0  0 
 48 62  1  0  0  0  0 
 48 63  1  0  0  0  0 
 49 53  1  0  0  0  0 
 49 64  1  0  0  0  0 
 50 66  1  0  0  0  0 
 50 67  1  0  0  0  0 
 50 68  1  0  0  0  0 
 51 69  1  0  0  0  0 
 51 70  1  0  0  0  0 
 51 71  1  0  0  0  0 
 52 65  1  0  0  0  0 
 52 72  1  0  0  0  0 
 52 73  1  0  0  0  0 
 53 54  2  0  0  0  0 
 53 55  1  0  0  0  0 
 54 56  1  0  0  0  0 
 54 74  1  0  0  0  0 
 55 57  2  0  0  0  0 
 55 75  1  0  0  0  0 
 56 58  2  0  0  0  0 
 56 59  1  0  0  0  0 
 57 58  1  0  0  0  0 
 57 77  1  0  0  0  0 
 59 78  1  0  0  0  0 
 59 79  1  0  0  0  0 
M  END
> <cdk:Title>
16220171

> <cdk:Remark>
null

> <PUBCHEM_COMPOUND_CID>
16220171

> <PUBCHEM_COMPOUND_CANONICALIZED>
1

> <PUBCHEM_CACTVS_COMPLEXITY>
1040

> <PUBCHEM_CACTVS_HBOND_ACCEPTOR>
34

> <PUBCHEM_CACTVS_HBOND_DONOR>
4

> <PUBCHEM_CACTVS_ROTATABLE_BOND>
14

> <PUBCHEM_CACTVS_SUBSKEYS>
AAADceB7OcAAAAAAAAAAAAAAAAAAAAAAAAAwAAAAAAAAAAABAAAAHwAQCAAADJzhmBYyDoPAAgCIAiBCCAACAAAgIAAIiIAOCIgKNyKCkROEcAAl0BGYmAeQ4OQOIAACAAAIAABAAAQAABAAAAAAAAAAAA==

> <PUBCHEM_IUPAC_OPENEYE_NAME>
4-[2-(tert-butylamino)-1-hydroxy-ethyl]-2-(hydroxymethyl)phenol;carbon dioxide;1,1,2,2,3,3,4,4,4-nonafluoro-N,N-bis(1,1,2,2,3,3,4,4,4-nonafluorobutyl)butan-1-amine

> <PUBCHEM_IUPAC_CAS_NAME>
4-[2-(tert-butylamino)-1-hydroxyethyl]-2-(hydroxymethyl)phenol;carbon dioxide;1,1,2,2,3,3,4,4,4-nonafluoro-N,N-bis(1,1,2,2,3,3,4,4,4-nonafluorobutyl)-1-butanamine

> <PUBCHEM_IUPAC_NAME>
4-[2-(tert-butylamino)-1-hydroxyethyl]-2-(hydroxymethyl)phenol;carbon dioxide;1,1,2,2,3,3,4,4,4-nonafluoro-N,N-bis(1,1,2,2,3,3,4,4,4-nonafluorobutyl)butan-1-amine

> <PUBCHEM_IUPAC_SYSTEMATIC_NAME>
4-[2-(tert-butylamino)-1-oxidanyl-ethyl]-2-(hydroxymethyl)phenol;carbon dioxide;1,1,2,2,3,3,4,4,4-nonakis(fluoranyl)-N,N-bis[1,1,2,2,3,3,4,4,4-nonakis(fluoranyl)butyl]butan-1-amine

> <PUBCHEM_IUPAC_TRADITIONAL_NAME>
4-[2-(tert-butylamino)-1-hydroxy-ethyl]-2-methylol-phenol;carbon dioxide;tris(1,1,2,2,3,3,4,4,4-nonafluorobutyl)amine

> <PUBCHEM_IUPAC_INCHI>
InChI=1S/C13H21NO3.C12F27N.CO2/c1-13(2,3)14-7-12(17)9-4-5-11(16)10(6-9)8-15;13-1(14,7(25,26)27)4(19,20)10(34,35)40(11(36,37)5(21,22)2(15,16)8(28,29)30)12(38,39)6(23,24)3(17,18)9(31,32)33;2-1-3/h4-6,12,14-17H,7-8H2,1-3H3;;

> <PUBCHEM_IUPAC_INCHIKEY>
MZRGYLAYWOQZOL-UHFFFAOYSA-N

> <PUBCHEM_EXACT_MASS>
954.101934

> <PUBCHEM_MOLECULAR_FORMULA>
C26H21F27N2O5

> <PUBCHEM_MOLECULAR_WEIGHT>
954.412226

> <PUBCHEM_OPENEYE_CAN_SMILES>
CC(C)(C)NCC(C1=CC(=C(C=C1)O)CO)O.C(=O)=O.C(C(C(F)(F)F)(F)F)(C(N(C(C(C(C(F)(F)F)(F)F)(F)F)(F)F)C(C(C(C(F)(F)F)(F)F)(F)F)(F)F)(F)F)(F)F

> <PUBCHEM_OPENEYE_ISO_SMILES>
CC(C)(C)NCC(C1=CC(=C(C=C1)O)CO)O.C(=O)=O.C(C(C(F)(F)F)(F)F)(C(N(C(C(C(C(F)(F)F)(F)F)(F)F)(F)F)C(C(C(C(F)(F)F)(F)F)(F)F)(F)F)(F)F)(F)F

> <PUBCHEM_CACTVS_TPSA>
110

> <PUBCHEM_MONOISOTOPIC_WEIGHT>
954.101934

> <PUBCHEM_TOTAL_CHARGE>
0

> <PUBCHEM_HEAVY_ATOM_COUNT>
60

> <PUBCHEM_ATOM_DEF_STEREO_COUNT>
0

> <PUBCHEM_ATOM_UDEF_STEREO_COUNT>
1

> <PUBCHEM_BOND_DEF_STEREO_COUNT>
0

> <PUBCHEM_BOND_UDEF_STEREO_COUNT>
0

> <PUBCHEM_ISOTOPIC_ATOM_COUNT>
0

> <PUBCHEM_COMPONENT_COUNT>
3

> <PUBCHEM_CACTVS_TAUTO_COUNT>
3

> <PUBCHEM_COORDINATE_TYPE>
1

> <PUBCHEM_BONDANNOTATIONS>
49  28  3

$$$$
16220171
  CDK     1220141115

 81 79  0  0  0  0  0  0  0  0999 V2000
    9.4282    4.6340    0.0000 F   0  0  0  0  0  0  0  0  0  0  0  0
    6.6962    4.6340    0.0000 F   0  0  0  0  0  0  0  0  0  0  0  0
    7.6962    6.3660    0.0000 F   0  0  0  0  0  0  0  0  0  0  0  0
    7.0622    4.0000    0.0000 F   0  0  0  0  0  0  0  0  0  0  0  0
    9.0622    4.0000    0.0000 F   0  0  0  0  0  0  0  0  0  0  0  0
    8.4282    6.3660    0.0000 F   0  0  0  0  0  0  0  0  0  0  0  0
   10.2942    5.1340    0.0000 F   0  0  0  0  0  0  0  0  0  0  0  0
    9.2942    6.8660    0.0000 F   0  0  0  0  0  0  0  0  0  0  0  0
    5.8301    5.1340    0.0000 F   0  0  0  0  0  0  0  0  0  0  0  0
    6.8301    6.8660    0.0000 F   0  0  0  0  0  0  0  0  0  0  0  0
    7.0622    3.0000    0.0000 F   0  0  0  0  0  0  0  0  0  0  0  0
    9.0622    3.0000    0.0000 F   0  0  0  0  0  0  0  0  0  0  0  0
    4.9641    5.6340    0.0000 F   0  0  0  0  0  0  0  0  0  0  0  0
    5.9641    7.3660    0.0000 F   0  0  0  0  0  0  0  0  0  0  0  0
    7.0622    2.0000    0.0000 F   0  0  0  0  0  0  0  0  0  0  0  0
    9.0622    2.0000    0.0000 F   0  0  0  0  0  0  0  0  0  0  0  0
   11.1603    5.6340    0.0000 F   0  0  0  0  0  0  0  0  0  0  0  0
   10.1603    7.3660    0.0000 F   0  0  0  0  0  0  0  0  0  0  0  0
   12.3923    7.5000    0.0000 F   0  0  0  0  0  0  0  0  0  0  0  0
   12.0263    6.1340    0.0000 F   0  0  0  0  0  0  0  0  0  0  0  0
   11.0263    7.8660    0.0000 F   0  0  0  0  0  0  0  0  0  0  0  0
    3.7320    7.5000    0.0000 F   0  0  0  0  0  0  0  0  0  0  0  0
    4.0981    6.1340    0.0000 F   0  0  0  0  0  0  0  0  0  0  0  0
    5.0981    7.8660    0.0000 F   0  0  0  0  0  0  0  0  0  0  0  0
    8.0622    0.0000    0.0000 F   0  0  0  0  0  0  0  0  0  0  0  0
    7.0622    1.0000    0.0000 F   0  0  0  0  0  0  0  0  0  0  0  0
    9.0622    1.0000    0.0000 F   0  0  0  0  0  0  0  0  0  0  0  0
    7.1962   14.6760    0.0000 O   0  0  0  0  0  0  0  0  0  0  0  0
    8.0622   10.1760    0.0000 O   0  0  0  0  0  0  0  0  0  0  0  0
    5.4641   11.6760    0.0000 O   0  0  0  0  0  0  0  0  0  0  0  0
    1.7320    9.2895    0.0000 O   0  0  0  0  0  0  0  0  0  0  0  0
    0.0000    8.2895    0.0000 O   0  0  0  0  0  0  0  0  0  0  0  0
    8.0622    5.0000    0.0000 N   0  0  0  0  0  0  0  0  0  0  0  0
    8.9282   15.6760    0.0000 N   0  0  0  0  0  0  0  0  0  0  0  0
    8.9282    5.5000    0.0000 C   0  0  0  0  0  0  0  0  0  0  0  0
    7.1962    5.5000    0.0000 C   0  0  0  0  0  0  0  0  0  0  0  0
    8.0622    4.0000    0.0000 C   0  0  0  0  0  0  0  0  0  0  0  0
    9.7942    6.0000    0.0000 C   0  0  0  0  0  0  0  0  0  0  0  0
    6.3301    6.0000    0.0000 C   0  0  0  0  0  0  0  0  0  0  0  0
    8.0622    3.0000    0.0000 C   0  0  0  0  0  0  0  0  0  0  0  0
    5.4641    6.5000    0.0000 C   0  0  0  0  0  0  0  0  0  0  0  0
    8.0622    2.0000    0.0000 C   0  0  0  0  0  0  0  0  0  0  0  0
   10.6603    6.5000    0.0000 C   0  0  0  0  0  0  0  0  0  0  0  0
    9.7942   16.1760    0.0000 C   0  0  0  0  0  0  0  0  0  0  0  0
   11.5263    7.0000    0.0000 C   0  0  0  0  0  0  0  0  0  0  0  0
    4.5981    7.0000    0.0000 C   0  0  0  0  0  0  0  0  0  0  0  0
    8.0622    1.0000    0.0000 C   0  0  0  0  0  0  0  0  0  0  0  0
    8.9282   14.6760    0.0000 C   0  0  0  0  0  0  0  0  0  0  0  0
    8.0622   14.1760    0.0000 C   0  0  3  0  0  0  0  0  0  0  0  0
   10.6603   16.6760    0.0000 C   0  0  0  0  0  0  0  0  0  0  0  0
    9.2942   17.0421    0.0000 C   0  0  0  0  0  0  0  0  0  0  0  0
   10.2942   15.3100    0.0000 C   0  0  0  0  0  0  0  0  0  0  0  0
    8.0622   13.1760    0.0000 C   0  0  0  0  0  0  0  0  0  0  0  0
    7.1962   12.6760    0.0000 C   0  0  0  0  0  0  0  0  0  0  0  0
    8.9282   12.6760    0.0000 C   0  0  0  0  0  0  0  0  0  0  0  0
    7.1962   11.6760    0.0000 C   0  0  0  0  0  0  0  0  0  0  0  0
    8.9282   11.6760    0.0000 C   0  0  0  0  0  0  0  0  0  0  0  0
    8.0622   11.1760    0.0000 C   0  0  0  0  0  0  0  0  0  0  0  0
    6.3301   11.1760    0.0000 C   0  0  0  0  0  0  0  0  0  0  0  0
    0.8660    8.7895    0.0000 C   0  0  0  0  0  0  0  0  0  0  0  0
    8.3913   15.9860    0.0000 H   0  0  0  0  0  0  0  0  0  0  0  0
    9.1402   14.0934    0.0000 H   0  0  0  0  0  0  0  0  0  0  0  0
    9.5388   14.7837    0.0000 H   0  0  0  0  0  0  0  0  0  0  0  0
    8.0622   14.7960    0.0000 H   0  0  0  0  0  0  0  0  0  0  0  0
    9.7573   15.0000    0.0000 H   0  0  0  0  0  0  0  0  0  0  0  0
   10.9703   16.1391    0.0000 H   0  0  0  0  0  0  0  0  0  0  0  0
   11.1972   16.9860    0.0000 H   0  0  0  0  0  0  0  0  0  0  0  0
   10.3503   17.2130    0.0000 H   0  0  0  0  0  0  0  0  0  0  0  0
    9.8312   17.3521    0.0000 H   0  0  0  0  0  0  0  0  0  0  0  0
    8.9842   17.5790    0.0000 H   0  0  0  0  0  0  0  0  0  0  0  0
    8.7573   16.7321    0.0000 H   0  0  0  0  0  0  0  0  0  0  0  0
   10.6042   14.7731    0.0000 H   0  0  0  0  0  0  0  0  0  0  0  0
   10.8312   15.6200    0.0000 H   0  0  0  0  0  0  0  0  0  0  0  0
    6.6592   12.9860    0.0000 H   0  0  0  0  0  0  0  0  0  0  0  0
    9.4651   12.9860    0.0000 H   0  0  0  0  0  0  0  0  0  0  0  0
    7.1962   15.2960    0.0000 H   0  0  0  0  0  0  0  0  0  0  0  0
    9.4651   11.3660    0.0000 H   0  0  0  0  0  0  0  0  0  0  0  0
    5.9316   10.7011    0.0000 H   0  0  0  0  0  0  0  0  0  0  0  0
    6.7286   10.7011    0.0000 H   0  0  0  0  0  0  0  0  0  0  0  0
    8.5991    9.8660    0.0000 H   0  0  0  0  0  0  0  0  0  0  0  0
    4.9272   11.3660    0.0000 H   0  0  0  0  0  0  0  0  0  0  0  0
  1 35  1  0  0  0  0 
  2 36  1  0  0  0  0 
  3 36  1  0  0  0  0 
  4 37  1  0  0  0  0 
  5 37  1  0  0  0  0 
  6 35  1  0  0  0  0 
  7 38  1  0  0  0  0 
  8 38  1  0  0  0  0 
  9 39  1  0  0  0  0 
 10 39  1  0  0  0  0 
 11 40  1  0  0  0  0 
 12 40  1  0  0  0  0 
 13 41  1  0  0  0  0 
 14 41  1  0  0  0  0 
 15 42  1  0  0  0  0 
 16 42  1  0  0  0  0 
 17 43  1  0  0  0  0 
 18 43  1  0  0  0  0 
 19 45  1  0  0  0  0 
 20 45  1  0  0  0  0 
 21 45  1  0  0  0  0 
 22 46  1  0  0  0  0 
 23 46  1  0  0  0  0 
 24 46  1  0  0  0  0 
 25 47  1  0  0  0  0 
 26 47  1  0  0  0  0 
 27 47  1  0  0  0  0 
 28 49  1  0  0  0  0 
 28 76  1  0  0  0  0 
 29 58  1  0  0  0  0 
 29 80  1  0  0  0  0 
 30 59  1  0  0  0  0 
 30 81  1  0  0  0  0 
 31 60  2  0  0  0  0 
 32 60  2  0  0  0  0 
 33 35  1  0  0  0  0 
 33 36  1  0  0  0  0 
 33 37  1  0  0  0  0 
 34 44  1  0  0  0  0 
 34 48  1  0  0  0  0 
 34 61  1  0  0  0  0 
 35 38  1  0  0  0  0 
 36 39  1  0  0  0  0 
 37 40  1  0  0  0  0 
 38 43  1  0  0  0  0 
 39 41  1  0  0  0  0 
 40 42  1  0  0  0  0 
 41 46  1  0  0  0  0 
 42 47  1  0  0  0  0 
 43 45  1  0  0  0  0 
 44 50  1  0  0  0  0 
 44 51  1  0  0  0  0 
 44 52  1  0  0  0  0 
 48 49  1  0  0  0  0 
 48 62  1  0  0  0  0 
 48 63  1  0  0  0  0 
 49 53  1  0  0  0  0 
 49 64  1  0  0  0  0 
 50 66  1  0  0  0  0 
 50 67  1  0  0  0  0 
 50 68  1  0  0  0  0 
 51 69  1  0  0  0  0 
 51 70  1  0  0  0  0 
 51 71  1  0  0  0  0 
 52 65  1  0  0  0  0 
 52 72  1  0  0  0  0 
 52 73  1  0  0  0  0 
 53 54  2  0  0  0  0 
 53 55  1  0  0  0  0 
 54 56  1  0  0  0  0 
 54 74  1  0  0  0  0 
 55 57  2  0  0  0  0 
 55 75  1  0  0  0  0 
 56 58  2  0  0  0  0 
 56 59  1  0  0  0  0 
 57 58  1  0  0  0  0 
 57 77  1  0  0  0  0 
 59 78  1  0  0  0  0 
 59 79  1  0  0  0  0 
M  END
> <cdk:Title>
16220171

> <cdk:Remark>
null

> <PUBCHEM_COMPOUND_CID>
16220171

> <PUBCHEM_COMPOUND_CANONICALIZED>
1

> <PUBCHEM_CACTVS_COMPLEXITY>
1040

> <PUBCHEM_CACTVS_HBOND_ACCEPTOR>
34

> <PUBCHEM_CACTVS_HBOND_DONOR>
4

> <PUBCHEM_CACTVS_ROTATABLE_BOND>
14

> <PUBCHEM_CACTVS_SUBSKEYS>
AAADceB7OcAAAAAAAAAAAAAAAAAAAAAAAAAwAAAAAAAAAAABAAAAHwAQCAAADJzhmBYyDoPAAgCIAiBCCAACAAAgIAAIiIAOCIgKNyKCkROEcAAl0BGYmAeQ4OQOIAACAAAIAABAAAQAABAAAAAAAAAAAA==

> <PUBCHEM_IUPAC_OPENEYE_NAME>
4-[2-(tert-butylamino)-1-hydroxy-ethyl]-2-(hydroxymethyl)phenol;carbon dioxide;1,1,2,2,3,3,4,4,4-nonafluoro-N,N-bis(1,1,2,2,3,3,4,4,4-nonafluorobutyl)butan-1-amine

> <PUBCHEM_IUPAC_CAS_NAME>
4-[2-(tert-butylamino)-1-hydroxyethyl]-2-(hydroxymethyl)phenol;carbon dioxide;1,1,2,2,3,3,4,4,4-nonafluoro-N,N-bis(1,1,2,2,3,3,4,4,4-nonafluorobutyl)-1-butanamine

> <PUBCHEM_IUPAC_NAME>
4-[2-(tert-butylamino)-1-hydroxyethyl]-2-(hydroxymethyl)phenol;carbon dioxide;1,1,2,2,3,3,4,4,4-nonafluoro-N,N-bis(1,1,2,2,3,3,4,4,4-nonafluorobutyl)butan-1-amine

> <PUBCHEM_IUPAC_SYSTEMATIC_NAME>
4-[2-(tert-butylamino)-1-oxidanyl-ethyl]-2-(hydroxymethyl)phenol;carbon dioxide;1,1,2,2,3,3,4,4,4-nonakis(fluoranyl)-N,N-bis[1,1,2,2,3,3,4,4,4-nonakis(fluoranyl)butyl]butan-1-amine

> <PUBCHEM_IUPAC_TRADITIONAL_NAME>
4-[2-(tert-butylamino)-1-hydroxy-ethyl]-2-methylol-phenol;carbon dioxide;tris(1,1,2,2,3,3,4,4,4-nonafluorobutyl)amine

> <PUBCHEM_IUPAC_INCHI>
InChI=1S/C13H21NO3.C12F27N.CO2/c1-13(2,3)14-7-12(17)9-4-5-11(16)10(6-9)8-15;13-1(14,7(25,26)27)4(19,20)10(34,35)40(11(36,37)5(21,22)2(15,16)8(28,29)30)12(38,39)6(23,24)3(17,18)9(31,32)33;2-1-3/h4-6,12,14-17H,7-8H2,1-3H3;;

> <PUBCHEM_IUPAC_INCHIKEY>
MZRGYLAYWOQZOL-UHFFFAOYSA-N

> <PUBCHEM_EXACT_MASS>
954.101934

> <PUBCHEM_MOLECULAR_FORMULA>
C26H21F27N2O5

> <PUBCHEM_MOLECULAR_WEIGHT>
954.412226

> <PUBCHEM_OPENEYE_CAN_SMILES>
CC(C)(C)NCC(C1=CC(=C(C=C1)O)CO)O.C(=O)=O.C(C(C(F)(F)F)(F)F)(C(N(C(C(C(C(F)(F)F)(F)F)(F)F)(F)F)C(C(C(C(F)(F)F)(F)F)(F)F)(F)F)(F)F)(F)F

> <PUBCHEM_OPENEYE_ISO_SMILES>
CC(C)(C)NCC(C1=CC(=C(C=C1)O)CO)O.C(=O)=O.C(C(C(F)(F)F)(F)F)(C(N(C(C(C(C(F)(F)F)(F)F)(F)F)(F)F)C(C(C(C(F)(F)F)(F)F)(F)F)(F)F)(F)F)(F)F

> <PUBCHEM_CACTVS_TPSA>
110

> <PUBCHEM_MONOISOTOPIC_WEIGHT>
954.101934

> <PUBCHEM_TOTAL_CHARGE>
0

> <PUBCHEM_HEAVY_ATOM_COUNT>
60

> <PUBCHEM_ATOM_DEF_STEREO_COUNT>
0

> <PUBCHEM_ATOM_UDEF_STEREO_COUNT>
1

> <PUBCHEM_BOND_DEF_STEREO_COUNT>
0

> <PUBCHEM_BOND_UDEF_STEREO_COUNT>
0

> <PUBCHEM_ISOTOPIC_ATOM_COUNT>
0

> <PUBCHEM_COMPONENT_COUNT>
3

> <PUBCHEM_CACTVS_TAUTO_COUNT>
3

> <PUBCHEM_COORDINATE_TYPE>
1

> <PUBCHEM_BONDANNOTATIONS>
49  28  3

$$$$
