25095125
  CDK     1220141107

 53 56  0  0  0  0  0  0  0  0999 V2000
    5.2267   -1.7762    0.0000 O   0  0  0  0  0  0  0  0  0  0  0  0
    5.5927    0.5898    0.0000 O   0  0  0  0  0  0  0  0  0  0  0  0
   10.8568    0.6106    0.0000 O   0  0  0  0  0  0  0  0  0  0  0  0
    9.9392    2.1244    0.0000 O   0  0  0  0  0  0  0  0  0  0  0  0
    6.4587   -0.9102    0.0000 N   0  0  0  0  0  0  0  0  0  0  0  0
   10.8568   -0.4310    0.0000 N   0  0  0  0  0  0  0  0  0  0  0  0
    4.7267   -0.9102    0.0000 C   0  0  3  0  0  0  0  0  0  0  0  0
    4.2267   -0.0442    0.0000 C   0  0  0  0  0  0  0  0  0  0  0  0
    3.8607   -1.4102    0.0000 C   0  0  0  0  0  0  0  0  0  0  0  0
    4.0530    0.9406    0.0000 C   0  0  0  0  0  0  0  0  0  0  0  0
    5.5927   -0.4102    0.0000 C   0  0  0  0  0  0  0  0  0  0  0  0
    2.9946   -0.9102    0.0000 C   0  0  0  0  0  0  0  0  0  0  0  0
    3.8607   -2.4102    0.0000 C   0  0  0  0  0  0  0  0  0  0  0  0
    3.1133    1.2826    0.0000 C   0  0  0  0  0  0  0  0  0  0  0  0
    4.8191    1.5834    0.0000 C   0  0  0  0  0  0  0  0  0  0  0  0
    7.3248   -0.4102    0.0000 C   0  0  0  0  0  0  0  0  0  0  0  0
    2.9397    2.2674    0.0000 C   0  0  0  0  0  0  0  0  0  0  0  0
    8.1908   -0.9102    0.0000 C   0  0  0  0  0  0  0  0  0  0  0  0
    9.0568   -0.4102    0.0000 C   0  0  0  0  0  0  0  0  0  0  0  0
    2.1286   -1.4102    0.0000 C   0  0  0  0  0  0  0  0  0  0  0  0
    2.9946   -2.9102    0.0000 C   0  0  0  0  0  0  0  0  0  0  0  0
    4.6454    2.5682    0.0000 C   0  0  0  0  0  0  0  0  0  0  0  0
    3.7057    2.9102    0.0000 C   0  0  0  0  0  0  0  0  0  0  0  0
    7.3248    0.5898    0.0000 C   0  0  0  0  0  0  0  0  0  0  0  0
    9.0568    0.5898    0.0000 C   0  0  0  0  0  0  0  0  0  0  0  0
    2.1286   -2.4102    0.0000 C   0  0  0  0  0  0  0  0  0  0  0  0
    8.1908    1.0898    0.0000 C   0  0  0  0  0  0  0  0  0  0  0  0
    2.0000    2.6095    0.0000 C   0  0  0  0  0  0  0  0  0  0  0  0
    9.9508   -0.9449    0.0000 C   0  0  0  0  0  0  0  0  0  0  0  0
    9.9508    1.1244    0.0000 C   0  0  0  0  0  0  0  0  0  0  0  0
    9.9392   -1.9448    0.0000 C   0  0  0  0  0  0  0  0  0  0  0  0
    3.6234    0.0988    0.0000 H   0  0  0  0  0  0  0  0  0  0  0  0
    4.8093    0.1679    0.0000 H   0  0  0  0  0  0  0  0  0  0  0  0
    6.4587   -1.5302    0.0000 H   0  0  0  0  0  0  0  0  0  0  0  0
    2.9946   -0.2902    0.0000 H   0  0  0  0  0  0  0  0  0  0  0  0
    4.3976   -2.7202    0.0000 H   0  0  0  0  0  0  0  0  0  0  0  0
    2.6384    0.8841    0.0000 H   0  0  0  0  0  0  0  0  0  0  0  0
    4.9167   -2.3132    0.0000 H   0  0  0  0  0  0  0  0  0  0  0  0
    5.4017    1.3713    0.0000 H   0  0  0  0  0  0  0  0  0  0  0  0
    8.1908   -1.5302    0.0000 H   0  0  0  0  0  0  0  0  0  0  0  0
    1.5917   -1.1002    0.0000 H   0  0  0  0  0  0  0  0  0  0  0  0
    2.9946   -3.5302    0.0000 H   0  0  0  0  0  0  0  0  0  0  0  0
    5.1204    2.9667    0.0000 H   0  0  0  0  0  0  0  0  0  0  0  0
    3.5981    3.5208    0.0000 H   0  0  0  0  0  0  0  0  0  0  0  0
    6.7878    0.8998    0.0000 H   0  0  0  0  0  0  0  0  0  0  0  0
    1.5917   -2.7202    0.0000 H   0  0  0  0  0  0  0  0  0  0  0  0
    8.1908    1.7098    0.0000 H   0  0  0  0  0  0  0  0  0  0  0  0
    2.2120    3.1921    0.0000 H   0  0  0  0  0  0  0  0  0  0  0  0
    1.4174    2.8215    0.0000 H   0  0  0  0  0  0  0  0  0  0  0  0
    1.7880    2.0268    0.0000 H   0  0  0  0  0  0  0  0  0  0  0  0
    9.3192   -1.9376    0.0000 H   0  0  0  0  0  0  0  0  0  0  0  0
    9.9320   -2.5648    0.0000 H   0  0  0  0  0  0  0  0  0  0  0  0
   10.5591   -1.9520    0.0000 H   0  0  0  0  0  0  0  0  0  0  0  0
  1  7  1  0  0  0  0 
  1 38  1  0  0  0  0 
  2 11  2  0  0  0  0 
  3  6  1  0  0  0  0 
  3 30  1  0  0  0  0 
  4 30  2  0  0  0  0 
  5 11  1  0  0  0  0 
  5 16  1  0  0  0  0 
  5 34  1  0  0  0  0 
  6 29  2  0  0  0  0 
  7  8  1  0  0  0  0 
  7  9  1  0  0  0  0 
  7 11  1  0  0  0  0 
  8 10  1  0  0  0  0 
  8 32  1  0  0  0  0 
  8 33  1  0  0  0  0 
  9 12  2  0  0  0  0 
  9 13  1  0  0  0  0 
 10 14  1  0  0  0  0 
 10 15  2  0  0  0  0 
 12 20  1  0  0  0  0 
 12 35  1  0  0  0  0 
 13 21  2  0  0  0  0 
 13 36  1  0  0  0  0 
 14 17  2  0  0  0  0 
 14 37  1  0  0  0  0 
 15 22  1  0  0  0  0 
 15 39  1  0  0  0  0 
 16 18  2  0  0  0  0 
 16 24  1  0  0  0  0 
 17 23  1  0  0  0  0 
 17 28  1  0  0  0  0 
 18 19  1  0  0  0  0 
 18 40  1  0  0  0  0 
 19 25  2  0  0  0  0 
 19 29  1  0  0  0  0 
 20 26  2  0  0  0  0 
 20 41  1  0  0  0  0 
 21 26  1  0  0  0  0 
 21 42  1  0  0  0  0 
 22 23  2  0  0  0  0 
 22 43  1  0  0  0  0 
 23 44  1  0  0  0  0 
 24 27  2  0  0  0  0 
 24 45  1  0  0  0  0 
 25 27  1  0  0  0  0 
 25 30  1  0  0  0  0 
 26 46  1  0  0  0  0 
 27 47  1  0  0  0  0 
 28 48  1  0  0  0  0 
 28 49  1  0  0  0  0 
 28 50  1  0  0  0  0 
 29 31  1  0  0  0  0 
 31 51  1  0  0  0  0 
 31 52  1  0  0  0  0 
 31 53  1  0  0  0  0 
M  END
> <cdk:Title>
25095125

> <cdk:Remark>
null

> <PUBCHEM_COMPOUND_CID>
25095125

> <PUBCHEM_COMPOUND_CANONICALIZED>
1

> <PUBCHEM_CACTVS_COMPLEXITY>
702

> <PUBCHEM_CACTVS_HBOND_ACCEPTOR>
5

> <PUBCHEM_CACTVS_HBOND_DONOR>
2

> <PUBCHEM_CACTVS_ROTATABLE_BOND>
5

> <PUBCHEM_CACTVS_SUBSKEYS>
AAADceB7OAAAAAAAAAAAAAAAAAAAAAAAAAAwYMEAAAAAAACBUAAAHgAUCAAADEyBmAAyyILQAgCoAyXyWAKCAAAlAgAIiAFwbNgKJrLAlZGEcQhk1AHY2YeY2fOeiAACQAAQAAAQAASAACAAAAAAAAAAAA==

> <PUBCHEM_IUPAC_OPENEYE_NAME>
2-hydroxy-N-(4-methyl-1-oxo-2,3-benzoxazin-6-yl)-3-(m-tolyl)-2-phenyl-propanamide

> <PUBCHEM_IUPAC_CAS_NAME>
2-hydroxy-N-(4-methyl-1-oxo-2,3-benzoxazin-6-yl)-3-(3-methylphenyl)-2-phenylpropanamide

> <PUBCHEM_IUPAC_NAME>
2-hydroxy-N-(4-methyl-1-oxo-2,3-benzoxazin-6-yl)-3-(3-methylphenyl)-2-phenylpropanamide

> <PUBCHEM_IUPAC_SYSTEMATIC_NAME>
N-(4-methyl-1-oxidanylidene-2,3-benzoxazin-6-yl)-3-(3-methylphenyl)-2-oxidanyl-2-phenyl-propanamide

> <PUBCHEM_IUPAC_TRADITIONAL_NAME>
2-hydroxy-N-(1-keto-4-methyl-2,3-benzoxazin-6-yl)-3-(m-tolyl)-2-phenyl-propionamide

> <PUBCHEM_IUPAC_INCHI>
InChI=1S/C25H22N2O4/c1-16-7-6-8-18(13-16)15-25(30,19-9-4-3-5-10-19)24(29)26-20-11-12-21-22(14-20)17(2)27-31-23(21)28/h3-14,30H,15H2,1-2H3,(H,26,29)

> <PUBCHEM_IUPAC_INCHIKEY>
KETRMYPSOXINDC-UHFFFAOYSA-N

> <PUBCHEM_XLOGP3_AA>
4

> <PUBCHEM_EXACT_MASS>
414.157957

> <PUBCHEM_MOLECULAR_FORMULA>
C25H22N2O4

> <PUBCHEM_MOLECULAR_WEIGHT>
414.45318

> <PUBCHEM_OPENEYE_CAN_SMILES>
CC1=CC(=CC=C1)CC(C2=CC=CC=C2)(C(=O)NC3=CC4=C(C=C3)C(=O)ON=C4C)O

> <PUBCHEM_OPENEYE_ISO_SMILES>
CC1=CC(=CC=C1)CC(C2=CC=CC=C2)(C(=O)NC3=CC4=C(C=C3)C(=O)ON=C4C)O

> <PUBCHEM_CACTVS_TPSA>
88

> <PUBCHEM_MONOISOTOPIC_WEIGHT>
414.157957

> <PUBCHEM_TOTAL_CHARGE>
0

> <PUBCHEM_HEAVY_ATOM_COUNT>
31

> <PUBCHEM_ATOM_DEF_STEREO_COUNT>
0

> <PUBCHEM_ATOM_UDEF_STEREO_COUNT>
1

> <PUBCHEM_BOND_DEF_STEREO_COUNT>
0

> <PUBCHEM_BOND_UDEF_STEREO_COUNT>
0

> <PUBCHEM_ISOTOPIC_ATOM_COUNT>
0

> <PUBCHEM_COMPONENT_COUNT>
1

> <PUBCHEM_CACTVS_TAUTO_COUNT>
8

> <PUBCHEM_COORDINATE_TYPE>
1

> <PUBCHEM_BONDANNOTATIONS>
7  1  3

$$$$
25095125
  CDK     1220141108

 53 56  0  0  0  0  0  0  0  0999 V2000
    5.2267   -1.7762    0.0000 O   0  0  0  0  0  0  0  0  0  0  0  0
    5.5927    0.5898    0.0000 O   0  0  0  0  0  0  0  0  0  0  0  0
   10.8568    0.6106    0.0000 O   0  0  0  0  0  0  0  0  0  0  0  0
    9.9392    2.1244    0.0000 O   0  0  0  0  0  0  0  0  0  0  0  0
    6.4587   -0.9102    0.0000 N   0  0  0  0  0  0  0  0  0  0  0  0
   10.8568   -0.4310    0.0000 N   0  0  0  0  0  0  0  0  0  0  0  0
    4.7267   -0.9102    0.0000 C   0  0  3  0  0  0  0  0  0  0  0  0
    4.2267   -0.0442    0.0000 C   0  0  0  0  0  0  0  0  0  0  0  0
    3.8607   -1.4102    0.0000 C   0  0  0  0  0  0  0  0  0  0  0  0
    4.0530    0.9406    0.0000 C   0  0  0  0  0  0  0  0  0  0  0  0
    5.5927   -0.4102    0.0000 C   0  0  0  0  0  0  0  0  0  0  0  0
    2.9946   -0.9102    0.0000 C   0  0  0  0  0  0  0  0  0  0  0  0
    3.8607   -2.4102    0.0000 C   0  0  0  0  0  0  0  0  0  0  0  0
    3.1133    1.2826    0.0000 C   0  0  0  0  0  0  0  0  0  0  0  0
    4.8191    1.5834    0.0000 C   0  0  0  0  0  0  0  0  0  0  0  0
    7.3248   -0.4102    0.0000 C   0  0  0  0  0  0  0  0  0  0  0  0
    2.9397    2.2674    0.0000 C   0  0  0  0  0  0  0  0  0  0  0  0
    8.1908   -0.9102    0.0000 C   0  0  0  0  0  0  0  0  0  0  0  0
    9.0568   -0.4102    0.0000 C   0  0  0  0  0  0  0  0  0  0  0  0
    2.1286   -1.4102    0.0000 C   0  0  0  0  0  0  0  0  0  0  0  0
    2.9946   -2.9102    0.0000 C   0  0  0  0  0  0  0  0  0  0  0  0
    4.6454    2.5682    0.0000 C   0  0  0  0  0  0  0  0  0  0  0  0
    3.7057    2.9102    0.0000 C   0  0  0  0  0  0  0  0  0  0  0  0
    7.3248    0.5898    0.0000 C   0  0  0  0  0  0  0  0  0  0  0  0
    9.0568    0.5898    0.0000 C   0  0  0  0  0  0  0  0  0  0  0  0
    2.1286   -2.4102    0.0000 C   0  0  0  0  0  0  0  0  0  0  0  0
    8.1908    1.0898    0.0000 C   0  0  0  0  0  0  0  0  0  0  0  0
    2.0000    2.6095    0.0000 C   0  0  0  0  0  0  0  0  0  0  0  0
    9.9508   -0.9449    0.0000 C   0  0  0  0  0  0  0  0  0  0  0  0
    9.9508    1.1244    0.0000 C   0  0  0  0  0  0  0  0  0  0  0  0
    9.9392   -1.9448    0.0000 C   0  0  0  0  0  0  0  0  0  0  0  0
    3.6234    0.0988    0.0000 H   0  0  0  0  0  0  0  0  0  0  0  0
    4.8093    0.1679    0.0000 H   0  0  0  0  0  0  0  0  0  0  0  0
    6.4587   -1.5302    0.0000 H   0  0  0  0  0  0  0  0  0  0  0  0
    2.9946   -0.2902    0.0000 H   0  0  0  0  0  0  0  0  0  0  0  0
    4.3976   -2.7202    0.0000 H   0  0  0  0  0  0  0  0  0  0  0  0
    2.6384    0.8841    0.0000 H   0  0  0  0  0  0  0  0  0  0  0  0
    4.9167   -2.3132    0.0000 H   0  0  0  0  0  0  0  0  0  0  0  0
    5.4017    1.3713    0.0000 H   0  0  0  0  0  0  0  0  0  0  0  0
    8.1908   -1.5302    0.0000 H   0  0  0  0  0  0  0  0  0  0  0  0
    1.5917   -1.1002    0.0000 H   0  0  0  0  0  0  0  0  0  0  0  0
    2.9946   -3.5302    0.0000 H   0  0  0  0  0  0  0  0  0  0  0  0
    5.1204    2.9667    0.0000 H   0  0  0  0  0  0  0  0  0  0  0  0
    3.5981    3.5208    0.0000 H   0  0  0  0  0  0  0  0  0  0  0  0
    6.7878    0.8998    0.0000 H   0  0  0  0  0  0  0  0  0  0  0  0
    1.5917   -2.7202    0.0000 H   0  0  0  0  0  0  0  0  0  0  0  0
    8.1908    1.7098    0.0000 H   0  0  0  0  0  0  0  0  0  0  0  0
    2.2120    3.1921    0.0000 H   0  0  0  0  0  0  0  0  0  0  0  0
    1.4174    2.8215    0.0000 H   0  0  0  0  0  0  0  0  0  0  0  0
    1.7880    2.0268    0.0000 H   0  0  0  0  0  0  0  0  0  0  0  0
    9.3192   -1.9376    0.0000 H   0  0  0  0  0  0  0  0  0  0  0  0
    9.9320   -2.5648    0.0000 H   0  0  0  0  0  0  0  0  0  0  0  0
   10.5591   -1.9520    0.0000 H   0  0  0  0  0  0  0  0  0  0  0  0
  1  7  1  0  0  0  0 
  1 38  1  0  0  0  0 
  2 11  2  0  0  0  0 
  3  6  1  0  0  0  0 
  3 30  1  0  0  0  0 
  4 30  2  0  0  0  0 
  5 11  1  0  0  0  0 
  5 16  1  0  0  0  0 
  5 34  1  0  0  0  0 
  6 29  2  0  0  0  0 
  7  8  1  0  0  0  0 
  7  9  1  0  0  0  0 
  7 11  1  0  0  0  0 
  8 10  1  0  0  0  0 
  8 32  1  0  0  0  0 
  8 33  1  0  0  0  0 
  9 12  2  0  0  0  0 
  9 13  1  0  0  0  0 
 10 14  1  0  0  0  0 
 10 15  2  0  0  0  0 
 12 20  1  0  0  0  0 
 12 35  1  0  0  0  0 
 13 21  2  0  0  0  0 
 13 36  1  0  0  0  0 
 14 17  2  0  0  0  0 
 14 37  1  0  0  0  0 
 15 22  1  0  0  0  0 
 15 39  1  0  0  0  0 
 16 18  2  0  0  0  0 
 16 24  1  0  0  0  0 
 17 23  1  0  0  0  0 
 17 28  1  0  0  0  0 
 18 19  1  0  0  0  0 
 18 40  1  0  0  0  0 
 19 25  2  0  0  0  0 
 19 29  1  0  0  0  0 
 20 26  2  0  0  0  0 
 20 41  1  0  0  0  0 
 21 26  1  0  0  0  0 
 21 42  1  0  0  0  0 
 22 23  2  0  0  0  0 
 22 43  1  0  0  0  0 
 23 44  1  0  0  0  0 
 24 27  2  0  0  0  0 
 24 45  1  0  0  0  0 
 25 27  1  0  0  0  0 
 25 30  1  0  0  0  0 
 26 46  1  0  0  0  0 
 27 47  1  0  0  0  0 
 28 48  1  0  0  0  0 
 28 49  1  0  0  0  0 
 28 50  1  0  0  0  0 
 29 31  1  0  0  0  0 
 31 51  1  0  0  0  0 
 31 52  1  0  0  0  0 
 31 53  1  0  0  0  0 
M  END
> <cdk:Title>
25095125

> <cdk:Remark>
null

> <PUBCHEM_COMPOUND_CID>
25095125

> <PUBCHEM_COMPOUND_CANONICALIZED>
1

> <PUBCHEM_CACTVS_COMPLEXITY>
702

> <PUBCHEM_CACTVS_HBOND_ACCEPTOR>
5

> <PUBCHEM_CACTVS_HBOND_DONOR>
2

> <PUBCHEM_CACTVS_ROTATABLE_BOND>
5

> <PUBCHEM_CACTVS_SUBSKEYS>
AAADceB7OAAAAAAAAAAAAAAAAAAAAAAAAAAwYMEAAAAAAACBUAAAHgAUCAAADEyBmAAyyILQAgCoAyXyWAKCAAAlAgAIiAFwbNgKJrLAlZGEcQhk1AHY2YeY2fOeiAACQAAQAAAQAASAACAAAAAAAAAAAA==

> <PUBCHEM_IUPAC_OPENEYE_NAME>
2-hydroxy-N-(4-methyl-1-oxo-2,3-benzoxazin-6-yl)-3-(m-tolyl)-2-phenyl-propanamide

> <PUBCHEM_IUPAC_CAS_NAME>
2-hydroxy-N-(4-methyl-1-oxo-2,3-benzoxazin-6-yl)-3-(3-methylphenyl)-2-phenylpropanamide

> <PUBCHEM_IUPAC_NAME>
2-hydroxy-N-(4-methyl-1-oxo-2,3-benzoxazin-6-yl)-3-(3-methylphenyl)-2-phenylpropanamide

> <PUBCHEM_IUPAC_SYSTEMATIC_NAME>
N-(4-methyl-1-oxidanylidene-2,3-benzoxazin-6-yl)-3-(3-methylphenyl)-2-oxidanyl-2-phenyl-propanamide

> <PUBCHEM_IUPAC_TRADITIONAL_NAME>
2-hydroxy-N-(1-keto-4-methyl-2,3-benzoxazin-6-yl)-3-(m-tolyl)-2-phenyl-propionamide

> <PUBCHEM_IUPAC_INCHI>
InChI=1S/C25H22N2O4/c1-16-7-6-8-18(13-16)15-25(30,19-9-4-3-5-10-19)24(29)26-20-11-12-21-22(14-20)17(2)27-31-23(21)28/h3-14,30H,15H2,1-2H3,(H,26,29)

> <PUBCHEM_IUPAC_INCHIKEY>
KETRMYPSOXINDC-UHFFFAOYSA-N

> <PUBCHEM_XLOGP3_AA>
4

> <PUBCHEM_EXACT_MASS>
414.157957

> <PUBCHEM_MOLECULAR_FORMULA>
C25H22N2O4

> <PUBCHEM_MOLECULAR_WEIGHT>
414.45318

> <PUBCHEM_OPENEYE_CAN_SMILES>
CC1=CC(=CC=C1)CC(C2=CC=CC=C2)(C(=O)NC3=CC4=C(C=C3)C(=O)ON=C4C)O

> <PUBCHEM_OPENEYE_ISO_SMILES>
CC1=CC(=CC=C1)CC(C2=CC=CC=C2)(C(=O)NC3=CC4=C(C=C3)C(=O)ON=C4C)O

> <PUBCHEM_CACTVS_TPSA>
88

> <PUBCHEM_MONOISOTOPIC_WEIGHT>
414.157957

> <PUBCHEM_TOTAL_CHARGE>
0

> <PUBCHEM_HEAVY_ATOM_COUNT>
31

> <PUBCHEM_ATOM_DEF_STEREO_COUNT>
0

> <PUBCHEM_ATOM_UDEF_STEREO_COUNT>
1

> <PUBCHEM_BOND_DEF_STEREO_COUNT>
0

> <PUBCHEM_BOND_UDEF_STEREO_COUNT>
0

> <PUBCHEM_ISOTOPIC_ATOM_COUNT>
0

> <PUBCHEM_COMPONENT_COUNT>
1

> <PUBCHEM_CACTVS_TAUTO_COUNT>
8

> <PUBCHEM_COORDINATE_TYPE>
1

> <PUBCHEM_BONDANNOTATIONS>
7  1  3

$$$$
25095125
  CDK     1220141115

 53 56  0  0  0  0  0  0  0  0999 V2000
    5.2267   -1.7762    0.0000 O   0  0  0  0  0  0  0  0  0  0  0  0
    5.5927    0.5898    0.0000 O   0  0  0  0  0  0  0  0  0  0  0  0
   10.8568    0.6106    0.0000 O   0  0  0  0  0  0  0  0  0  0  0  0
    9.9392    2.1244    0.0000 O   0  0  0  0  0  0  0  0  0  0  0  0
    6.4587   -0.9102    0.0000 N   0  0  0  0  0  0  0  0  0  0  0  0
   10.8568   -0.4310    0.0000 N   0  0  0  0  0  0  0  0  0  0  0  0
    4.7267   -0.9102    0.0000 C   0  0  3  0  0  0  0  0  0  0  0  0
    4.2267   -0.0442    0.0000 C   0  0  0  0  0  0  0  0  0  0  0  0
    3.8607   -1.4102    0.0000 C   0  0  0  0  0  0  0  0  0  0  0  0
    4.0530    0.9406    0.0000 C   0  0  0  0  0  0  0  0  0  0  0  0
    5.5927   -0.4102    0.0000 C   0  0  0  0  0  0  0  0  0  0  0  0
    2.9946   -0.9102    0.0000 C   0  0  0  0  0  0  0  0  0  0  0  0
    3.8607   -2.4102    0.0000 C   0  0  0  0  0  0  0  0  0  0  0  0
    3.1133    1.2826    0.0000 C   0  0  0  0  0  0  0  0  0  0  0  0
    4.8191    1.5834    0.0000 C   0  0  0  0  0  0  0  0  0  0  0  0
    7.3248   -0.4102    0.0000 C   0  0  0  0  0  0  0  0  0  0  0  0
    2.9397    2.2674    0.0000 C   0  0  0  0  0  0  0  0  0  0  0  0
    8.1908   -0.9102    0.0000 C   0  0  0  0  0  0  0  0  0  0  0  0
    9.0568   -0.4102    0.0000 C   0  0  0  0  0  0  0  0  0  0  0  0
    2.1286   -1.4102    0.0000 C   0  0  0  0  0  0  0  0  0  0  0  0
    2.9946   -2.9102    0.0000 C   0  0  0  0  0  0  0  0  0  0  0  0
    4.6454    2.5682    0.0000 C   0  0  0  0  0  0  0  0  0  0  0  0
    3.7057    2.9102    0.0000 C   0  0  0  0  0  0  0  0  0  0  0  0
    7.3248    0.5898    0.0000 C   0  0  0  0  0  0  0  0  0  0  0  0
    9.0568    0.5898    0.0000 C   0  0  0  0  0  0  0  0  0  0  0  0
    2.1286   -2.4102    0.0000 C   0  0  0  0  0  0  0  0  0  0  0  0
    8.1908    1.0898    0.0000 C   0  0  0  0  0  0  0  0  0  0  0  0
    2.0000    2.6095    0.0000 C   0  0  0  0  0  0  0  0  0  0  0  0
    9.9508   -0.9449    0.0000 C   0  0  0  0  0  0  0  0  0  0  0  0
    9.9508    1.1244    0.0000 C   0  0  0  0  0  0  0  0  0  0  0  0
    9.9392   -1.9448    0.0000 C   0  0  0  0  0  0  0  0  0  0  0  0
    3.6234    0.0988    0.0000 H   0  0  0  0  0  0  0  0  0  0  0  0
    4.8093    0.1679    0.0000 H   0  0  0  0  0  0  0  0  0  0  0  0
    6.4587   -1.5302    0.0000 H   0  0  0  0  0  0  0  0  0  0  0  0
    2.9946   -0.2902    0.0000 H   0  0  0  0  0  0  0  0  0  0  0  0
    4.3976   -2.7202    0.0000 H   0  0  0  0  0  0  0  0  0  0  0  0
    2.6384    0.8841    0.0000 H   0  0  0  0  0  0  0  0  0  0  0  0
    4.9167   -2.3132    0.0000 H   0  0  0  0  0  0  0  0  0  0  0  0
    5.4017    1.3713    0.0000 H   0  0  0  0  0  0  0  0  0  0  0  0
    8.1908   -1.5302    0.0000 H   0  0  0  0  0  0  0  0  0  0  0  0
    1.5917   -1.1002    0.0000 H   0  0  0  0  0  0  0  0  0  0  0  0
    2.9946   -3.5302    0.0000 H   0  0  0  0  0  0  0  0  0  0  0  0
    5.1204    2.9667    0.0000 H   0  0  0  0  0  0  0  0  0  0  0  0
    3.5981    3.5208    0.0000 H   0  0  0  0  0  0  0  0  0  0  0  0
    6.7878    0.8998    0.0000 H   0  0  0  0  0  0  0  0  0  0  0  0
    1.5917   -2.7202    0.0000 H   0  0  0  0  0  0  0  0  0  0  0  0
    8.1908    1.7098    0.0000 H   0  0  0  0  0  0  0  0  0  0  0  0
    2.2120    3.1921    0.0000 H   0  0  0  0  0  0  0  0  0  0  0  0
    1.4174    2.8215    0.0000 H   0  0  0  0  0  0  0  0  0  0  0  0
    1.7880    2.0268    0.0000 H   0  0  0  0  0  0  0  0  0  0  0  0
    9.3192   -1.9376    0.0000 H   0  0  0  0  0  0  0  0  0  0  0  0
    9.9320   -2.5648    0.0000 H   0  0  0  0  0  0  0  0  0  0  0  0
   10.5591   -1.9520    0.0000 H   0  0  0  0  0  0  0  0  0  0  0  0
  1  7  1  0  0  0  0 
  1 38  1  0  0  0  0 
  2 11  2  0  0  0  0 
  3  6  1  0  0  0  0 
  3 30  1  0  0  0  0 
  4 30  2  0  0  0  0 
  5 11  1  0  0  0  0 
  5 16  1  0  0  0  0 
  5 34  1  0  0  0  0 
  6 29  2  0  0  0  0 
  7  8  1  0  0  0  0 
  7  9  1  0  0  0  0 
  7 11  1  0  0  0  0 
  8 10  1  0  0  0  0 
  8 32  1  0  0  0  0 
  8 33  1  0  0  0  0 
  9 12  2  0  0  0  0 
  9 13  1  0  0  0  0 
 10 14  1  0  0  0  0 
 10 15  2  0  0  0  0 
 12 20  1  0  0  0  0 
 12 35  1  0  0  0  0 
 13 21  2  0  0  0  0 
 13 36  1  0  0  0  0 
 14 17  2  0  0  0  0 
 14 37  1  0  0  0  0 
 15 22  1  0  0  0  0 
 15 39  1  0  0  0  0 
 16 18  2  0  0  0  0 
 16 24  1  0  0  0  0 
 17 23  1  0  0  0  0 
 17 28  1  0  0  0  0 
 18 19  1  0  0  0  0 
 18 40  1  0  0  0  0 
 19 25  2  0  0  0  0 
 19 29  1  0  0  0  0 
 20 26  2  0  0  0  0 
 20 41  1  0  0  0  0 
 21 26  1  0  0  0  0 
 21 42  1  0  0  0  0 
 22 23  2  0  0  0  0 
 22 43  1  0  0  0  0 
 23 44  1  0  0  0  0 
 24 27  2  0  0  0  0 
 24 45  1  0  0  0  0 
 25 27  1  0  0  0  0 
 25 30  1  0  0  0  0 
 26 46  1  0  0  0  0 
 27 47  1  0  0  0  0 
 28 48  1  0  0  0  0 
 28 49  1  0  0  0  0 
 28 50  1  0  0  0  0 
 29 31  1  0  0  0  0 
 31 51  1  0  0  0  0 
 31 52  1  0  0  0  0 
 31 53  1  0  0  0  0 
M  END
> <cdk:Title>
25095125

> <cdk:Remark>
null

> <PUBCHEM_COMPOUND_CID>
25095125

> <PUBCHEM_COMPOUND_CANONICALIZED>
1

> <PUBCHEM_CACTVS_COMPLEXITY>
702

> <PUBCHEM_CACTVS_HBOND_ACCEPTOR>
5

> <PUBCHEM_CACTVS_HBOND_DONOR>
2

> <PUBCHEM_CACTVS_ROTATABLE_BOND>
5

> <PUBCHEM_CACTVS_SUBSKEYS>
AAADceB7OAAAAAAAAAAAAAAAAAAAAAAAAAAwYMEAAAAAAACBUAAAHgAUCAAADEyBmAAyyILQAgCoAyXyWAKCAAAlAgAIiAFwbNgKJrLAlZGEcQhk1AHY2YeY2fOeiAACQAAQAAAQAASAACAAAAAAAAAAAA==

> <PUBCHEM_IUPAC_OPENEYE_NAME>
2-hydroxy-N-(4-methyl-1-oxo-2,3-benzoxazin-6-yl)-3-(m-tolyl)-2-phenyl-propanamide

> <PUBCHEM_IUPAC_CAS_NAME>
2-hydroxy-N-(4-methyl-1-oxo-2,3-benzoxazin-6-yl)-3-(3-methylphenyl)-2-phenylpropanamide

> <PUBCHEM_IUPAC_NAME>
2-hydroxy-N-(4-methyl-1-oxo-2,3-benzoxazin-6-yl)-3-(3-methylphenyl)-2-phenylpropanamide

> <PUBCHEM_IUPAC_SYSTEMATIC_NAME>
N-(4-methyl-1-oxidanylidene-2,3-benzoxazin-6-yl)-3-(3-methylphenyl)-2-oxidanyl-2-phenyl-propanamide

> <PUBCHEM_IUPAC_TRADITIONAL_NAME>
2-hydroxy-N-(1-keto-4-methyl-2,3-benzoxazin-6-yl)-3-(m-tolyl)-2-phenyl-propionamide

> <PUBCHEM_IUPAC_INCHI>
InChI=1S/C25H22N2O4/c1-16-7-6-8-18(13-16)15-25(30,19-9-4-3-5-10-19)24(29)26-20-11-12-21-22(14-20)17(2)27-31-23(21)28/h3-14,30H,15H2,1-2H3,(H,26,29)

> <PUBCHEM_IUPAC_INCHIKEY>
KETRMYPSOXINDC-UHFFFAOYSA-N

> <PUBCHEM_XLOGP3_AA>
4

> <PUBCHEM_EXACT_MASS>
414.157957

> <PUBCHEM_MOLECULAR_FORMULA>
C25H22N2O4

> <PUBCHEM_MOLECULAR_WEIGHT>
414.45318

> <PUBCHEM_OPENEYE_CAN_SMILES>
CC1=CC(=CC=C1)CC(C2=CC=CC=C2)(C(=O)NC3=CC4=C(C=C3)C(=O)ON=C4C)O

> <PUBCHEM_OPENEYE_ISO_SMILES>
CC1=CC(=CC=C1)CC(C2=CC=CC=C2)(C(=O)NC3=CC4=C(C=C3)C(=O)ON=C4C)O

> <PUBCHEM_CACTVS_TPSA>
88

> <PUBCHEM_MONOISOTOPIC_WEIGHT>
414.157957

> <PUBCHEM_TOTAL_CHARGE>
0

> <PUBCHEM_HEAVY_ATOM_COUNT>
31

> <PUBCHEM_ATOM_DEF_STEREO_COUNT>
0

> <PUBCHEM_ATOM_UDEF_STEREO_COUNT>
1

> <PUBCHEM_BOND_DEF_STEREO_COUNT>
0

> <PUBCHEM_BOND_UDEF_STEREO_COUNT>
0

> <PUBCHEM_ISOTOPIC_ATOM_COUNT>
0

> <PUBCHEM_COMPONENT_COUNT>
1

> <PUBCHEM_CACTVS_TAUTO_COUNT>
8

> <PUBCHEM_COORDINATE_TYPE>
1

> <PUBCHEM_BONDANNOTATIONS>
7  1  3

$$$$
