3437967
  CDK     1220141107

 51 53  0  0  0  0  0  0  0  0999 V2000
    7.0972   -1.7307    0.0000 F   0  0  0  0  0  0  0  0  0  0  0  0
    8.1482    2.5307    0.0000 O   0  0  0  0  0  0  0  0  0  0  0  0
    6.7469    1.5127    0.0000 N   0  0  0  0  0  0  0  0  0  0  0  0
    9.3292    0.8082    0.0000 N   0  0  0  0  0  0  0  0  0  0  0  0
    9.6382   -0.1429    0.0000 N   0  0  0  0  0  0  0  0  0  0  0  0
    4.5768    3.0262    0.0000 C   0  0  0  0  0  0  0  0  0  0  0  0
    5.1646    2.2172    0.0000 C   0  0  0  0  0  0  0  0  0  0  0  0
    3.5823    2.9216    0.0000 C   0  0  0  0  0  0  0  0  0  0  0  0
    6.1591    2.3217    0.0000 C   0  0  0  0  0  0  0  0  0  0  0  0
    2.9945    3.7307    0.0000 C   0  0  0  0  0  0  0  0  0  0  0  0
    8.3292    0.8082    0.0000 C   0  0  0  0  0  0  0  0  0  0  0  0
    7.7414    1.6172    0.0000 C   0  0  0  0  0  0  0  0  0  0  0  0
    2.0000    3.6261    0.0000 C   0  0  0  0  0  0  0  0  0  0  0  0
    8.0202   -0.1429    0.0000 C   0  0  0  0  0  0  0  0  0  0  0  0
    8.8292   -0.7307    0.0000 C   0  0  0  0  0  0  0  0  0  0  0  0
    9.9170    1.6172    0.0000 C   0  0  0  0  0  0  0  0  0  0  0  0
    8.8292   -1.7307    0.0000 C   0  0  0  0  0  0  0  0  0  0  0  0
   10.9115    1.5127    0.0000 C   0  0  0  0  0  0  0  0  0  0  0  0
    9.5103    2.5307    0.0000 C   0  0  0  0  0  0  0  0  0  0  0  0
    7.9632   -2.2307    0.0000 C   0  0  0  0  0  0  0  0  0  0  0  0
    9.6952   -2.2307    0.0000 C   0  0  0  0  0  0  0  0  0  0  0  0
   11.4993    2.3217    0.0000 C   0  0  0  0  0  0  0  0  0  0  0  0
   10.0981    3.3398    0.0000 C   0  0  0  0  0  0  0  0  0  0  0  0
    7.9632   -3.2307    0.0000 C   0  0  0  0  0  0  0  0  0  0  0  0
    9.6952   -3.2307    0.0000 C   0  0  0  0  0  0  0  0  0  0  0  0
   11.0926    3.2352    0.0000 C   0  0  0  0  0  0  0  0  0  0  0  0
    8.8292   -3.7307    0.0000 C   0  0  0  0  0  0  0  0  0  0  0  0
    5.1341    3.2980    0.0000 H   0  0  0  0  0  0  0  0  0  0  0  0
    4.4059    3.6222    0.0000 H   0  0  0  0  0  0  0  0  0  0  0  0
    4.6074    1.9454    0.0000 H   0  0  0  0  0  0  0  0  0  0  0  0
    5.3355    1.6212    0.0000 H   0  0  0  0  0  0  0  0  0  0  0  0
    3.0250    2.6499    0.0000 H   0  0  0  0  0  0  0  0  0  0  0  0
    3.7532    2.3257    0.0000 H   0  0  0  0  0  0  0  0  0  0  0  0
    6.7164    2.5935    0.0000 H   0  0  0  0  0  0  0  0  0  0  0  0
    5.9882    2.9177    0.0000 H   0  0  0  0  0  0  0  0  0  0  0  0
    3.5518    4.0024    0.0000 H   0  0  0  0  0  0  0  0  0  0  0  0
    2.8236    4.3266    0.0000 H   0  0  0  0  0  0  0  0  0  0  0  0
    6.4947    0.9463    0.0000 H   0  0  0  0  0  0  0  0  0  0  0  0
    1.9352    4.2427    0.0000 H   0  0  0  0  0  0  0  0  0  0  0  0
    1.3834    3.5613    0.0000 H   0  0  0  0  0  0  0  0  0  0  0  0
    2.0648    3.0095    0.0000 H   0  0  0  0  0  0  0  0  0  0  0  0
    7.4306   -0.3345    0.0000 H   0  0  0  0  0  0  0  0  0  0  0  0
   11.1637    0.9463    0.0000 H   0  0  0  0  0  0  0  0  0  0  0  0
    8.8937    2.5955    0.0000 H   0  0  0  0  0  0  0  0  0  0  0  0
   10.2322   -1.9207    0.0000 H   0  0  0  0  0  0  0  0  0  0  0  0
   12.1159    2.2569    0.0000 H   0  0  0  0  0  0  0  0  0  0  0  0
    9.8459    3.9062    0.0000 H   0  0  0  0  0  0  0  0  0  0  0  0
    7.4263   -3.5407    0.0000 H   0  0  0  0  0  0  0  0  0  0  0  0
   10.2322   -3.5407    0.0000 H   0  0  0  0  0  0  0  0  0  0  0  0
   11.4570    3.7368    0.0000 H   0  0  0  0  0  0  0  0  0  0  0  0
    8.8292   -4.3507    0.0000 H   0  0  0  0  0  0  0  0  0  0  0  0
  1 20  1  0  0  0  0 
  2 12  2  0  0  0  0 
  3  9  1  0  0  0  0 
  3 12  1  0  0  0  0 
  3 38  1  0  0  0  0 
  4  5  1  0  0  0  0 
  4 11  1  0  0  0  0 
  4 16  1  0  0  0  0 
  5 15  2  0  0  0  0 
  6  7  1  0  0  0  0 
  6  8  1  0  0  0  0 
  6 28  1  0  0  0  0 
  6 29  1  0  0  0  0 
  7  9  1  0  0  0  0 
  7 30  1  0  0  0  0 
  7 31  1  0  0  0  0 
  8 10  1  0  0  0  0 
  8 32  1  0  0  0  0 
  8 33  1  0  0  0  0 
  9 34  1  0  0  0  0 
  9 35  1  0  0  0  0 
 10 13  1  0  0  0  0 
 10 36  1  0  0  0  0 
 10 37  1  0  0  0  0 
 11 12  1  0  0  0  0 
 11 14  2  0  0  0  0 
 13 39  1  0  0  0  0 
 13 40  1  0  0  0  0 
 13 41  1  0  0  0  0 
 14 15  1  0  0  0  0 
 14 42  1  0  0  0  0 
 15 17  1  0  0  0  0 
 16 18  2  0  0  0  0 
 16 19  1  0  0  0  0 
 17 20  1  0  0  0  0 
 17 21  2  0  0  0  0 
 18 22  1  0  0  0  0 
 18 43  1  0  0  0  0 
 19 23  2  0  0  0  0 
 19 44  1  0  0  0  0 
 20 24  2  0  0  0  0 
 21 25  1  0  0  0  0 
 21 45  1  0  0  0  0 
 22 26  2  0  0  0  0 
 22 46  1  0  0  0  0 
 23 26  1  0  0  0  0 
 23 47  1  0  0  0  0 
 24 27  1  0  0  0  0 
 24 48  1  0  0  0  0 
 25 27  2  0  0  0  0 
 25 49  1  0  0  0  0 
 26 50  1  0  0  0  0 
 27 51  1  0  0  0  0 
M  END
> <cdk:Title>
3437967

> <cdk:Remark>
null

> <PUBCHEM_COMPOUND_CID>
3437967

> <PUBCHEM_COMPOUND_CANONICALIZED>
1

> <PUBCHEM_CACTVS_COMPLEXITY>
455

> <PUBCHEM_CACTVS_HBOND_ACCEPTOR>
3

> <PUBCHEM_CACTVS_HBOND_DONOR>
1

> <PUBCHEM_CACTVS_ROTATABLE_BOND>
8

> <PUBCHEM_CACTVS_SUBSKEYS>
AAADceB7IQAAAAAAAAAAAAAAAAAAAWAAAAAwYAAAAAAAAAAB0AAAHwAYAAAADAjBngwywJLIAACqAyVyVACSBCAnAgAYmKG4ZNgIYPLA1fGUpQhgngDIyYcciICOAAAAAAAAAAAAAAAAAAAAAAAAAAAAAA==

> <PUBCHEM_IUPAC_OPENEYE_NAME>
5-(2-fluorophenyl)-N-hexyl-2-phenyl-pyrazole-3-carboxamide

> <PUBCHEM_IUPAC_CAS_NAME>
5-(2-fluorophenyl)-N-hexyl-2-phenyl-3-pyrazolecarboxamide

> <PUBCHEM_IUPAC_NAME>
5-(2-fluorophenyl)-N-hexyl-2-phenylpyrazole-3-carboxamide

> <PUBCHEM_IUPAC_SYSTEMATIC_NAME>
5-(2-fluorophenyl)-N-hexyl-2-phenyl-pyrazole-3-carboxamide

> <PUBCHEM_IUPAC_TRADITIONAL_NAME>
5-(2-fluorophenyl)-N-hexyl-2-phenyl-pyrazole-3-carboxamide

> <PUBCHEM_IUPAC_INCHI>
InChI=1S/C22H24FN3O/c1-2-3-4-10-15-24-22(27)21-16-20(18-13-8-9-14-19(18)23)25-26(21)17-11-6-5-7-12-17/h5-9,11-14,16H,2-4,10,15H2,1H3,(H,24,27)

> <PUBCHEM_IUPAC_INCHIKEY>
VFSYDXRCEBMBQB-UHFFFAOYSA-N

> <PUBCHEM_XLOGP3_AA>
5.6

> <PUBCHEM_EXACT_MASS>
365.190341

> <PUBCHEM_MOLECULAR_FORMULA>
C22H24FN3O

> <PUBCHEM_MOLECULAR_WEIGHT>
365.443863

> <PUBCHEM_OPENEYE_CAN_SMILES>
CCCCCCNC(=O)C1=CC(=NN1C2=CC=CC=C2)C3=CC=CC=C3F

> <PUBCHEM_OPENEYE_ISO_SMILES>
CCCCCCNC(=O)C1=CC(=NN1C2=CC=CC=C2)C3=CC=CC=C3F

> <PUBCHEM_CACTVS_TPSA>
46.9

> <PUBCHEM_MONOISOTOPIC_WEIGHT>
365.190341

> <PUBCHEM_TOTAL_CHARGE>
0

> <PUBCHEM_HEAVY_ATOM_COUNT>
27

> <PUBCHEM_ATOM_DEF_STEREO_COUNT>
0

> <PUBCHEM_ATOM_UDEF_STEREO_COUNT>
0

> <PUBCHEM_BOND_DEF_STEREO_COUNT>
0

> <PUBCHEM_BOND_UDEF_STEREO_COUNT>
0

> <PUBCHEM_ISOTOPIC_ATOM_COUNT>
0

> <PUBCHEM_COMPONENT_COUNT>
1

> <PUBCHEM_CACTVS_TAUTO_COUNT>
2

> <PUBCHEM_COORDINATE_TYPE>
1

> <PUBCHEM_BONDANNOTATIONS>
11  14  8

$$$$
3437967
  CDK     1220141108

 51 53  0  0  0  0  0  0  0  0999 V2000
    7.0972   -1.7307    0.0000 F   0  0  0  0  0  0  0  0  0  0  0  0
    8.1482    2.5307    0.0000 O   0  0  0  0  0  0  0  0  0  0  0  0
    6.7469    1.5127    0.0000 N   0  0  0  0  0  0  0  0  0  0  0  0
    9.3292    0.8082    0.0000 N   0  0  0  0  0  0  0  0  0  0  0  0
    9.6382   -0.1429    0.0000 N   0  0  0  0  0  0  0  0  0  0  0  0
    4.5768    3.0262    0.0000 C   0  0  0  0  0  0  0  0  0  0  0  0
    5.1646    2.2172    0.0000 C   0  0  0  0  0  0  0  0  0  0  0  0
    3.5823    2.9216    0.0000 C   0  0  0  0  0  0  0  0  0  0  0  0
    6.1591    2.3217    0.0000 C   0  0  0  0  0  0  0  0  0  0  0  0
    2.9945    3.7307    0.0000 C   0  0  0  0  0  0  0  0  0  0  0  0
    8.3292    0.8082    0.0000 C   0  0  0  0  0  0  0  0  0  0  0  0
    7.7414    1.6172    0.0000 C   0  0  0  0  0  0  0  0  0  0  0  0
    2.0000    3.6261    0.0000 C   0  0  0  0  0  0  0  0  0  0  0  0
    8.0202   -0.1429    0.0000 C   0  0  0  0  0  0  0  0  0  0  0  0
    8.8292   -0.7307    0.0000 C   0  0  0  0  0  0  0  0  0  0  0  0
    9.9170    1.6172    0.0000 C   0  0  0  0  0  0  0  0  0  0  0  0
    8.8292   -1.7307    0.0000 C   0  0  0  0  0  0  0  0  0  0  0  0
   10.9115    1.5127    0.0000 C   0  0  0  0  0  0  0  0  0  0  0  0
    9.5103    2.5307    0.0000 C   0  0  0  0  0  0  0  0  0  0  0  0
    7.9632   -2.2307    0.0000 C   0  0  0  0  0  0  0  0  0  0  0  0
    9.6952   -2.2307    0.0000 C   0  0  0  0  0  0  0  0  0  0  0  0
   11.4993    2.3217    0.0000 C   0  0  0  0  0  0  0  0  0  0  0  0
   10.0981    3.3398    0.0000 C   0  0  0  0  0  0  0  0  0  0  0  0
    7.9632   -3.2307    0.0000 C   0  0  0  0  0  0  0  0  0  0  0  0
    9.6952   -3.2307    0.0000 C   0  0  0  0  0  0  0  0  0  0  0  0
   11.0926    3.2352    0.0000 C   0  0  0  0  0  0  0  0  0  0  0  0
    8.8292   -3.7307    0.0000 C   0  0  0  0  0  0  0  0  0  0  0  0
    5.1341    3.2980    0.0000 H   0  0  0  0  0  0  0  0  0  0  0  0
    4.4059    3.6222    0.0000 H   0  0  0  0  0  0  0  0  0  0  0  0
    4.6074    1.9454    0.0000 H   0  0  0  0  0  0  0  0  0  0  0  0
    5.3355    1.6212    0.0000 H   0  0  0  0  0  0  0  0  0  0  0  0
    3.0250    2.6499    0.0000 H   0  0  0  0  0  0  0  0  0  0  0  0
    3.7532    2.3257    0.0000 H   0  0  0  0  0  0  0  0  0  0  0  0
    6.7164    2.5935    0.0000 H   0  0  0  0  0  0  0  0  0  0  0  0
    5.9882    2.9177    0.0000 H   0  0  0  0  0  0  0  0  0  0  0  0
    3.5518    4.0024    0.0000 H   0  0  0  0  0  0  0  0  0  0  0  0
    2.8236    4.3266    0.0000 H   0  0  0  0  0  0  0  0  0  0  0  0
    6.4947    0.9463    0.0000 H   0  0  0  0  0  0  0  0  0  0  0  0
    1.9352    4.2427    0.0000 H   0  0  0  0  0  0  0  0  0  0  0  0
    1.3834    3.5613    0.0000 H   0  0  0  0  0  0  0  0  0  0  0  0
    2.0648    3.0095    0.0000 H   0  0  0  0  0  0  0  0  0  0  0  0
    7.4306   -0.3345    0.0000 H   0  0  0  0  0  0  0  0  0  0  0  0
   11.1637    0.9463    0.0000 H   0  0  0  0  0  0  0  0  0  0  0  0
    8.8937    2.5955    0.0000 H   0  0  0  0  0  0  0  0  0  0  0  0
   10.2322   -1.9207    0.0000 H   0  0  0  0  0  0  0  0  0  0  0  0
   12.1159    2.2569    0.0000 H   0  0  0  0  0  0  0  0  0  0  0  0
    9.8459    3.9062    0.0000 H   0  0  0  0  0  0  0  0  0  0  0  0
    7.4263   -3.5407    0.0000 H   0  0  0  0  0  0  0  0  0  0  0  0
   10.2322   -3.5407    0.0000 H   0  0  0  0  0  0  0  0  0  0  0  0
   11.4570    3.7368    0.0000 H   0  0  0  0  0  0  0  0  0  0  0  0
    8.8292   -4.3507    0.0000 H   0  0  0  0  0  0  0  0  0  0  0  0
  1 20  1  0  0  0  0 
  2 12  2  0  0  0  0 
  3  9  1  0  0  0  0 
  3 12  1  0  0  0  0 
  3 38  1  0  0  0  0 
  4  5  1  0  0  0  0 
  4 11  1  0  0  0  0 
  4 16  1  0  0  0  0 
  5 15  2  0  0  0  0 
  6  7  1  0  0  0  0 
  6  8  1  0  0  0  0 
  6 28  1  0  0  0  0 
  6 29  1  0  0  0  0 
  7  9  1  0  0  0  0 
  7 30  1  0  0  0  0 
  7 31  1  0  0  0  0 
  8 10  1  0  0  0  0 
  8 32  1  0  0  0  0 
  8 33  1  0  0  0  0 
  9 34  1  0  0  0  0 
  9 35  1  0  0  0  0 
 10 13  1  0  0  0  0 
 10 36  1  0  0  0  0 
 10 37  1  0  0  0  0 
 11 12  1  0  0  0  0 
 11 14  2  0  0  0  0 
 13 39  1  0  0  0  0 
 13 40  1  0  0  0  0 
 13 41  1  0  0  0  0 
 14 15  1  0  0  0  0 
 14 42  1  0  0  0  0 
 15 17  1  0  0  0  0 
 16 18  2  0  0  0  0 
 16 19  1  0  0  0  0 
 17 20  1  0  0  0  0 
 17 21  2  0  0  0  0 
 18 22  1  0  0  0  0 
 18 43  1  0  0  0  0 
 19 23  2  0  0  0  0 
 19 44  1  0  0  0  0 
 20 24  2  0  0  0  0 
 21 25  1  0  0  0  0 
 21 45  1  0  0  0  0 
 22 26  2  0  0  0  0 
 22 46  1  0  0  0  0 
 23 26  1  0  0  0  0 
 23 47  1  0  0  0  0 
 24 27  1  0  0  0  0 
 24 48  1  0  0  0  0 
 25 27  2  0  0  0  0 
 25 49  1  0  0  0  0 
 26 50  1  0  0  0  0 
 27 51  1  0  0  0  0 
M  END
> <cdk:Title>
3437967

> <cdk:Remark>
null

> <PUBCHEM_COMPOUND_CID>
3437967

> <PUBCHEM_COMPOUND_CANONICALIZED>
1

> <PUBCHEM_CACTVS_COMPLEXITY>
455

> <PUBCHEM_CACTVS_HBOND_ACCEPTOR>
3

> <PUBCHEM_CACTVS_HBOND_DONOR>
1

> <PUBCHEM_CACTVS_ROTATABLE_BOND>
8

> <PUBCHEM_CACTVS_SUBSKEYS>
AAADceB7IQAAAAAAAAAAAAAAAAAAAWAAAAAwYAAAAAAAAAAB0AAAHwAYAAAADAjBngwywJLIAACqAyVyVACSBCAnAgAYmKG4ZNgIYPLA1fGUpQhgngDIyYcciICOAAAAAAAAAAAAAAAAAAAAAAAAAAAAAA==

> <PUBCHEM_IUPAC_OPENEYE_NAME>
5-(2-fluorophenyl)-N-hexyl-2-phenyl-pyrazole-3-carboxamide

> <PUBCHEM_IUPAC_CAS_NAME>
5-(2-fluorophenyl)-N-hexyl-2-phenyl-3-pyrazolecarboxamide

> <PUBCHEM_IUPAC_NAME>
5-(2-fluorophenyl)-N-hexyl-2-phenylpyrazole-3-carboxamide

> <PUBCHEM_IUPAC_SYSTEMATIC_NAME>
5-(2-fluorophenyl)-N-hexyl-2-phenyl-pyrazole-3-carboxamide

> <PUBCHEM_IUPAC_TRADITIONAL_NAME>
5-(2-fluorophenyl)-N-hexyl-2-phenyl-pyrazole-3-carboxamide

> <PUBCHEM_IUPAC_INCHI>
InChI=1S/C22H24FN3O/c1-2-3-4-10-15-24-22(27)21-16-20(18-13-8-9-14-19(18)23)25-26(21)17-11-6-5-7-12-17/h5-9,11-14,16H,2-4,10,15H2,1H3,(H,24,27)

> <PUBCHEM_IUPAC_INCHIKEY>
VFSYDXRCEBMBQB-UHFFFAOYSA-N

> <PUBCHEM_XLOGP3_AA>
5.6

> <PUBCHEM_EXACT_MASS>
365.190341

> <PUBCHEM_MOLECULAR_FORMULA>
C22H24FN3O

> <PUBCHEM_MOLECULAR_WEIGHT>
365.443863

> <PUBCHEM_OPENEYE_CAN_SMILES>
CCCCCCNC(=O)C1=CC(=NN1C2=CC=CC=C2)C3=CC=CC=C3F

> <PUBCHEM_OPENEYE_ISO_SMILES>
CCCCCCNC(=O)C1=CC(=NN1C2=CC=CC=C2)C3=CC=CC=C3F

> <PUBCHEM_CACTVS_TPSA>
46.9

> <PUBCHEM_MONOISOTOPIC_WEIGHT>
365.190341

> <PUBCHEM_TOTAL_CHARGE>
0

> <PUBCHEM_HEAVY_ATOM_COUNT>
27

> <PUBCHEM_ATOM_DEF_STEREO_COUNT>
0

> <PUBCHEM_ATOM_UDEF_STEREO_COUNT>
0

> <PUBCHEM_BOND_DEF_STEREO_COUNT>
0

> <PUBCHEM_BOND_UDEF_STEREO_COUNT>
0

> <PUBCHEM_ISOTOPIC_ATOM_COUNT>
0

> <PUBCHEM_COMPONENT_COUNT>
1

> <PUBCHEM_CACTVS_TAUTO_COUNT>
2

> <PUBCHEM_COORDINATE_TYPE>
1

> <PUBCHEM_BONDANNOTATIONS>
11  14  8

$$$$
3437967
  CDK     1220141115

 51 53  0  0  0  0  0  0  0  0999 V2000
    7.0972   -1.7307    0.0000 F   0  0  0  0  0  0  0  0  0  0  0  0
    8.1482    2.5307    0.0000 O   0  0  0  0  0  0  0  0  0  0  0  0
    6.7469    1.5127    0.0000 N   0  0  0  0  0  0  0  0  0  0  0  0
    9.3292    0.8082    0.0000 N   0  0  0  0  0  0  0  0  0  0  0  0
    9.6382   -0.1429    0.0000 N   0  0  0  0  0  0  0  0  0  0  0  0
    4.5768    3.0262    0.0000 C   0  0  0  0  0  0  0  0  0  0  0  0
    5.1646    2.2172    0.0000 C   0  0  0  0  0  0  0  0  0  0  0  0
    3.5823    2.9216    0.0000 C   0  0  0  0  0  0  0  0  0  0  0  0
    6.1591    2.3217    0.0000 C   0  0  0  0  0  0  0  0  0  0  0  0
    2.9945    3.7307    0.0000 C   0  0  0  0  0  0  0  0  0  0  0  0
    8.3292    0.8082    0.0000 C   0  0  0  0  0  0  0  0  0  0  0  0
    7.7414    1.6172    0.0000 C   0  0  0  0  0  0  0  0  0  0  0  0
    2.0000    3.6261    0.0000 C   0  0  0  0  0  0  0  0  0  0  0  0
    8.0202   -0.1429    0.0000 C   0  0  0  0  0  0  0  0  0  0  0  0
    8.8292   -0.7307    0.0000 C   0  0  0  0  0  0  0  0  0  0  0  0
    9.9170    1.6172    0.0000 C   0  0  0  0  0  0  0  0  0  0  0  0
    8.8292   -1.7307    0.0000 C   0  0  0  0  0  0  0  0  0  0  0  0
   10.9115    1.5127    0.0000 C   0  0  0  0  0  0  0  0  0  0  0  0
    9.5103    2.5307    0.0000 C   0  0  0  0  0  0  0  0  0  0  0  0
    7.9632   -2.2307    0.0000 C   0  0  0  0  0  0  0  0  0  0  0  0
    9.6952   -2.2307    0.0000 C   0  0  0  0  0  0  0  0  0  0  0  0
   11.4993    2.3217    0.0000 C   0  0  0  0  0  0  0  0  0  0  0  0
   10.0981    3.3398    0.0000 C   0  0  0  0  0  0  0  0  0  0  0  0
    7.9632   -3.2307    0.0000 C   0  0  0  0  0  0  0  0  0  0  0  0
    9.6952   -3.2307    0.0000 C   0  0  0  0  0  0  0  0  0  0  0  0
   11.0926    3.2352    0.0000 C   0  0  0  0  0  0  0  0  0  0  0  0
    8.8292   -3.7307    0.0000 C   0  0  0  0  0  0  0  0  0  0  0  0
    5.1341    3.2980    0.0000 H   0  0  0  0  0  0  0  0  0  0  0  0
    4.4059    3.6222    0.0000 H   0  0  0  0  0  0  0  0  0  0  0  0
    4.6074    1.9454    0.0000 H   0  0  0  0  0  0  0  0  0  0  0  0
    5.3355    1.6212    0.0000 H   0  0  0  0  0  0  0  0  0  0  0  0
    3.0250    2.6499    0.0000 H   0  0  0  0  0  0  0  0  0  0  0  0
    3.7532    2.3257    0.0000 H   0  0  0  0  0  0  0  0  0  0  0  0
    6.7164    2.5935    0.0000 H   0  0  0  0  0  0  0  0  0  0  0  0
    5.9882    2.9177    0.0000 H   0  0  0  0  0  0  0  0  0  0  0  0
    3.5518    4.0024    0.0000 H   0  0  0  0  0  0  0  0  0  0  0  0
    2.8236    4.3266    0.0000 H   0  0  0  0  0  0  0  0  0  0  0  0
    6.4947    0.9463    0.0000 H   0  0  0  0  0  0  0  0  0  0  0  0
    1.9352    4.2427    0.0000 H   0  0  0  0  0  0  0  0  0  0  0  0
    1.3834    3.5613    0.0000 H   0  0  0  0  0  0  0  0  0  0  0  0
    2.0648    3.0095    0.0000 H   0  0  0  0  0  0  0  0  0  0  0  0
    7.4306   -0.3345    0.0000 H   0  0  0  0  0  0  0  0  0  0  0  0
   11.1637    0.9463    0.0000 H   0  0  0  0  0  0  0  0  0  0  0  0
    8.8937    2.5955    0.0000 H   0  0  0  0  0  0  0  0  0  0  0  0
   10.2322   -1.9207    0.0000 H   0  0  0  0  0  0  0  0  0  0  0  0
   12.1159    2.2569    0.0000 H   0  0  0  0  0  0  0  0  0  0  0  0
    9.8459    3.9062    0.0000 H   0  0  0  0  0  0  0  0  0  0  0  0
    7.4263   -3.5407    0.0000 H   0  0  0  0  0  0  0  0  0  0  0  0
   10.2322   -3.5407    0.0000 H   0  0  0  0  0  0  0  0  0  0  0  0
   11.4570    3.7368    0.0000 H   0  0  0  0  0  0  0  0  0  0  0  0
    8.8292   -4.3507    0.0000 H   0  0  0  0  0  0  0  0  0  0  0  0
  1 20  1  0  0  0  0 
  2 12  2  0  0  0  0 
  3  9  1  0  0  0  0 
  3 12  1  0  0  0  0 
  3 38  1  0  0  0  0 
  4  5  1  0  0  0  0 
  4 11  1  0  0  0  0 
  4 16  1  0  0  0  0 
  5 15  2  0  0  0  0 
  6  7  1  0  0  0  0 
  6  8  1  0  0  0  0 
  6 28  1  0  0  0  0 
  6 29  1  0  0  0  0 
  7  9  1  0  0  0  0 
  7 30  1  0  0  0  0 
  7 31  1  0  0  0  0 
  8 10  1  0  0  0  0 
  8 32  1  0  0  0  0 
  8 33  1  0  0  0  0 
  9 34  1  0  0  0  0 
  9 35  1  0  0  0  0 
 10 13  1  0  0  0  0 
 10 36  1  0  0  0  0 
 10 37  1  0  0  0  0 
 11 12  1  0  0  0  0 
 11 14  2  0  0  0  0 
 13 39  1  0  0  0  0 
 13 40  1  0  0  0  0 
 13 41  1  0  0  0  0 
 14 15  1  0  0  0  0 
 14 42  1  0  0  0  0 
 15 17  1  0  0  0  0 
 16 18  2  0  0  0  0 
 16 19  1  0  0  0  0 
 17 20  1  0  0  0  0 
 17 21  2  0  0  0  0 
 18 22  1  0  0  0  0 
 18 43  1  0  0  0  0 
 19 23  2  0  0  0  0 
 19 44  1  0  0  0  0 
 20 24  2  0  0  0  0 
 21 25  1  0  0  0  0 
 21 45  1  0  0  0  0 
 22 26  2  0  0  0  0 
 22 46  1  0  0  0  0 
 23 26  1  0  0  0  0 
 23 47  1  0  0  0  0 
 24 27  1  0  0  0  0 
 24 48  1  0  0  0  0 
 25 27  2  0  0  0  0 
 25 49  1  0  0  0  0 
 26 50  1  0  0  0  0 
 27 51  1  0  0  0  0 
M  END
> <cdk:Title>
3437967

> <cdk:Remark>
null

> <PUBCHEM_COMPOUND_CID>
3437967

> <PUBCHEM_COMPOUND_CANONICALIZED>
1

> <PUBCHEM_CACTVS_COMPLEXITY>
455

> <PUBCHEM_CACTVS_HBOND_ACCEPTOR>
3

> <PUBCHEM_CACTVS_HBOND_DONOR>
1

> <PUBCHEM_CACTVS_ROTATABLE_BOND>
8

> <PUBCHEM_CACTVS_SUBSKEYS>
AAADceB7IQAAAAAAAAAAAAAAAAAAAWAAAAAwYAAAAAAAAAAB0AAAHwAYAAAADAjBngwywJLIAACqAyVyVACSBCAnAgAYmKG4ZNgIYPLA1fGUpQhgngDIyYcciICOAAAAAAAAAAAAAAAAAAAAAAAAAAAAAA==

> <PUBCHEM_IUPAC_OPENEYE_NAME>
5-(2-fluorophenyl)-N-hexyl-2-phenyl-pyrazole-3-carboxamide

> <PUBCHEM_IUPAC_CAS_NAME>
5-(2-fluorophenyl)-N-hexyl-2-phenyl-3-pyrazolecarboxamide

> <PUBCHEM_IUPAC_NAME>
5-(2-fluorophenyl)-N-hexyl-2-phenylpyrazole-3-carboxamide

> <PUBCHEM_IUPAC_SYSTEMATIC_NAME>
5-(2-fluorophenyl)-N-hexyl-2-phenyl-pyrazole-3-carboxamide

> <PUBCHEM_IUPAC_TRADITIONAL_NAME>
5-(2-fluorophenyl)-N-hexyl-2-phenyl-pyrazole-3-carboxamide

> <PUBCHEM_IUPAC_INCHI>
InChI=1S/C22H24FN3O/c1-2-3-4-10-15-24-22(27)21-16-20(18-13-8-9-14-19(18)23)25-26(21)17-11-6-5-7-12-17/h5-9,11-14,16H,2-4,10,15H2,1H3,(H,24,27)

> <PUBCHEM_IUPAC_INCHIKEY>
VFSYDXRCEBMBQB-UHFFFAOYSA-N

> <PUBCHEM_XLOGP3_AA>
5.6

> <PUBCHEM_EXACT_MASS>
365.190341

> <PUBCHEM_MOLECULAR_FORMULA>
C22H24FN3O

> <PUBCHEM_MOLECULAR_WEIGHT>
365.443863

> <PUBCHEM_OPENEYE_CAN_SMILES>
CCCCCCNC(=O)C1=CC(=NN1C2=CC=CC=C2)C3=CC=CC=C3F

> <PUBCHEM_OPENEYE_ISO_SMILES>
CCCCCCNC(=O)C1=CC(=NN1C2=CC=CC=C2)C3=CC=CC=C3F

> <PUBCHEM_CACTVS_TPSA>
46.9

> <PUBCHEM_MONOISOTOPIC_WEIGHT>
365.190341

> <PUBCHEM_TOTAL_CHARGE>
0

> <PUBCHEM_HEAVY_ATOM_COUNT>
27

> <PUBCHEM_ATOM_DEF_STEREO_COUNT>
0

> <PUBCHEM_ATOM_UDEF_STEREO_COUNT>
0

> <PUBCHEM_BOND_DEF_STEREO_COUNT>
0

> <PUBCHEM_BOND_UDEF_STEREO_COUNT>
0

> <PUBCHEM_ISOTOPIC_ATOM_COUNT>
0

> <PUBCHEM_COMPONENT_COUNT>
1

> <PUBCHEM_CACTVS_TAUTO_COUNT>
2

> <PUBCHEM_COORDINATE_TYPE>
1

> <PUBCHEM_BONDANNOTATIONS>
11  14  8

$$$$
