36118920
  CDK     1220141107

 47 50  0  0  0  0  0  0  0  0999 V2000
    9.5755    0.9592    0.0000 S   0  0  0  0  0  0  0  0  0  0  0  0
   13.9047    1.5470    0.0000 S   0  0  0  0  0  0  0  0  0  0  0  0
    2.8090    1.4007    0.0000 S   0  0  0  0  0  0  0  0  0  0  0  0
    5.8781    0.7284    0.0000 O   0  0  0  0  0  0  0  0  0  0  0  0
   11.3356   -2.3195    0.0000 O   0  0  0  0  0  0  0  0  0  0  0  0
   11.3356    0.6805    0.0000 N   0  0  0  0  0  0  0  0  0  0  0  0
   10.8356    2.2193    0.0000 N   0  0  0  0  0  0  0  0  0  0  0  0
   11.8356    2.2193    0.0000 N   0  0  0  0  0  0  0  0  0  0  0  0
    5.3781    2.2673    0.0000 N   0  0  0  0  0  0  0  0  0  0  0  0
    4.8781    0.7284    0.0000 N   0  0  0  0  0  0  0  0  0  0  0  0
    9.6036   -2.3195    0.0000 N   0  0  0  0  0  0  0  0  0  0  0  0
   11.3356   -0.3195    0.0000 C   0  0  0  0  0  0  0  0  0  0  0  0
    7.8813    1.3194    0.0000 C   0  0  0  0  0  0  0  0  0  0  0  0
    8.8324    1.6284    0.0000 C   0  0  0  0  0  0  0  0  0  0  0  0
   10.5266    1.2683    0.0000 C   0  0  0  0  0  0  0  0  0  0  0  0
   12.1446    1.2683    0.0000 C   0  0  0  0  0  0  0  0  0  0  0  0
    7.1382    1.9885    0.0000 C   0  0  0  0  0  0  0  0  0  0  0  0
   10.4696   -0.8195    0.0000 C   0  0  0  0  0  0  0  0  0  0  0  0
   13.0957    0.9592    0.0000 C   0  0  0  0  0  0  0  0  0  0  0  0
    6.1871    1.6795    0.0000 C   0  0  0  0  0  0  0  0  0  0  0  0
   10.4696   -1.8195    0.0000 C   0  0  0  0  0  0  0  0  0  0  0  0
   13.4047    0.0082    0.0000 C   0  0  0  0  0  0  0  0  0  0  0  0
    4.5691    1.6795    0.0000 C   0  0  0  0  0  0  0  0  0  0  0  0
   14.4047    0.0082    0.0000 C   0  0  0  0  0  0  0  0  0  0  0  0
   14.7137    0.9592    0.0000 C   0  0  0  0  0  0  0  0  0  0  0  0
    3.6180    1.9885    0.0000 C   0  0  0  0  0  0  0  0  0  0  0  0
    3.3090    2.9395    0.0000 C   0  0  0  0  0  0  0  0  0  0  0  0
    2.3090    2.9395    0.0000 C   0  0  0  0  0  0  0  0  0  0  0  0
    2.0000    1.9885    0.0000 C   0  0  0  0  0  0  0  0  0  0  0  0
   11.5477   -0.9021    0.0000 H   0  0  0  0  0  0  0  0  0  0  0  0
   11.9462   -0.2119    0.0000 H   0  0  0  0  0  0  0  0  0  0  0  0
    7.3928    0.9376    0.0000 H   0  0  0  0  0  0  0  0  0  0  0  0
    8.1724    0.7719    0.0000 H   0  0  0  0  0  0  0  0  0  0  0  0
    9.3210    2.0101    0.0000 H   0  0  0  0  0  0  0  0  0  0  0  0
    8.5413    2.1758    0.0000 H   0  0  0  0  0  0  0  0  0  0  0  0
    7.6268    2.3702    0.0000 H   0  0  0  0  0  0  0  0  0  0  0  0
    6.8471    2.5359    0.0000 H   0  0  0  0  0  0  0  0  0  0  0  0
   10.2575   -0.2369    0.0000 H   0  0  0  0  0  0  0  0  0  0  0  0
    9.8590   -0.9272    0.0000 H   0  0  0  0  0  0  0  0  0  0  0  0
   13.0403   -0.4934    0.0000 H   0  0  0  0  0  0  0  0  0  0  0  0
   14.7691   -0.4934    0.0000 H   0  0  0  0  0  0  0  0  0  0  0  0
   15.3034    1.1508    0.0000 H   0  0  0  0  0  0  0  0  0  0  0  0
    9.6036   -2.9395    0.0000 H   0  0  0  0  0  0  0  0  0  0  0  0
    9.0666   -2.0095    0.0000 H   0  0  0  0  0  0  0  0  0  0  0  0
    3.6734    3.4411    0.0000 H   0  0  0  0  0  0  0  0  0  0  0  0
    1.9446    3.4411    0.0000 H   0  0  0  0  0  0  0  0  0  0  0  0
    1.4103    1.7969    0.0000 H   0  0  0  0  0  0  0  0  0  0  0  0
  1 14  1  0  0  0  0 
  1 15  1  0  0  0  0 
  2 19  1  0  0  0  0 
  2 25  1  0  0  0  0 
  3 26  1  0  0  0  0 
  3 29  1  0  0  0  0 
  4 10  1  0  0  0  0 
  4 20  1  0  0  0  0 
  5 21  2  0  0  0  0 
  6 12  1  0  0  0  0 
  6 15  1  0  0  0  0 
  6 16  1  0  0  0  0 
  7  8  1  0  0  0  0 
  7 15  2  0  0  0  0 
  8 16  2  0  0  0  0 
  9 20  2  0  0  0  0 
  9 23  1  0  0  0  0 
 10 23  2  0  0  0  0 
 11 21  1  0  0  0  0 
 11 43  1  0  0  0  0 
 11 44  1  0  0  0  0 
 12 18  1  0  0  0  0 
 12 30  1  0  0  0  0 
 12 31  1  0  0  0  0 
 13 14  1  0  0  0  0 
 13 17  1  0  0  0  0 
 13 32  1  0  0  0  0 
 13 33  1  0  0  0  0 
 14 34  1  0  0  0  0 
 14 35  1  0  0  0  0 
 16 19  1  0  0  0  0 
 17 20  1  0  0  0  0 
 17 36  1  0  0  0  0 
 17 37  1  0  0  0  0 
 18 21  1  0  0  0  0 
 18 38  1  0  0  0  0 
 18 39  1  0  0  0  0 
 19 22  2  0  0  0  0 
 22 24  1  0  0  0  0 
 22 40  1  0  0  0  0 
 23 26  1  0  0  0  0 
 24 25  2  0  0  0  0 
 24 41  1  0  0  0  0 
 25 42  1  0  0  0  0 
 26 27  2  0  0  0  0 
 27 28  1  0  0  0  0 
 27 45  1  0  0  0  0 
 28 29  2  0  0  0  0 
 28 46  1  0  0  0  0 
 29 47  1  0  0  0  0 
M  END
> <cdk:Title>
36118920

> <cdk:Remark>
null

> <PUBCHEM_COMPOUND_CID>
36118920

> <PUBCHEM_COMPOUND_CANONICALIZED>
1

> <PUBCHEM_CACTVS_COMPLEXITY>
548

> <PUBCHEM_CACTVS_HBOND_ACCEPTOR>
9

> <PUBCHEM_CACTVS_HBOND_DONOR>
1

> <PUBCHEM_CACTVS_ROTATABLE_BOND>
10

> <PUBCHEM_CACTVS_SUBSKEYS>
AAADceB7sABgAAAAAAAAAAAAAAAAAWLEiQAAAAAAAAAAAAAB/gAAHgQcAAAACADF0wSxEYdcEAivACNyNgCT0ItgCLB9yDk4BJiIKLqg2RGEAAhknQKoiAYQAAAAAAAAAAAAAAAAAAAAAAAAAAAAAAAAAA==

> <PUBCHEM_IUPAC_OPENEYE_NAME>
3-[3-(2-thienyl)-5-[3-[3-(2-thienyl)-1,2,4-oxadiazol-5-yl]propylsulfanyl]-1,2,4-triazol-4-yl]propanamide

> <PUBCHEM_IUPAC_CAS_NAME>
3-[3-thiophen-2-yl-5-[3-(3-thiophen-2-yl-1,2,4-oxadiazol-5-yl)propylthio]-1,2,4-triazol-4-yl]propanamide

> <PUBCHEM_IUPAC_NAME>
3-[3-thiophen-2-yl-5-[3-(3-thiophen-2-yl-1,2,4-oxadiazol-5-yl)propylsulfanyl]-1,2,4-triazol-4-yl]propanamide

> <PUBCHEM_IUPAC_SYSTEMATIC_NAME>
3-[3-thiophen-2-yl-5-[3-(3-thiophen-2-yl-1,2,4-oxadiazol-5-yl)propylsulfanyl]-1,2,4-triazol-4-yl]propanamide

> <PUBCHEM_IUPAC_TRADITIONAL_NAME>
3-[3-(2-thienyl)-5-[3-[3-(2-thienyl)-1,2,4-oxadiazol-5-yl]propylthio]-1,2,4-triazol-4-yl]propionamide

> <PUBCHEM_IUPAC_INCHI>
InChI=1S/C18H18N6O2S3/c19-14(25)7-8-24-17(13-5-2-10-28-13)21-22-18(24)29-11-3-6-15-20-16(23-26-15)12-4-1-9-27-12/h1-2,4-5,9-10H,3,6-8,11H2,(H2,19,25)

> <PUBCHEM_IUPAC_INCHIKEY>
VODSZXHGEKUKNE-UHFFFAOYSA-N

> <PUBCHEM_XLOGP3_AA>
2.4

> <PUBCHEM_EXACT_MASS>
446.065337

> <PUBCHEM_MOLECULAR_FORMULA>
C18H18N6O2S3

> <PUBCHEM_MOLECULAR_WEIGHT>
446.56952

> <PUBCHEM_OPENEYE_CAN_SMILES>
C1=CSC(=C1)C2=NOC(=N2)CCCSC3=NN=C(N3CCC(=O)N)C4=CC=CS4

> <PUBCHEM_OPENEYE_ISO_SMILES>
C1=CSC(=C1)C2=NOC(=N2)CCCSC3=NN=C(N3CCC(=O)N)C4=CC=CS4

> <PUBCHEM_CACTVS_TPSA>
195

> <PUBCHEM_MONOISOTOPIC_WEIGHT>
446.065337

> <PUBCHEM_TOTAL_CHARGE>
0

> <PUBCHEM_HEAVY_ATOM_COUNT>
29

> <PUBCHEM_ATOM_DEF_STEREO_COUNT>
0

> <PUBCHEM_ATOM_UDEF_STEREO_COUNT>
0

> <PUBCHEM_BOND_DEF_STEREO_COUNT>
0

> <PUBCHEM_BOND_UDEF_STEREO_COUNT>
0

> <PUBCHEM_ISOTOPIC_ATOM_COUNT>
0

> <PUBCHEM_COMPONENT_COUNT>
1

> <PUBCHEM_CACTVS_TAUTO_COUNT>
6

> <PUBCHEM_COORDINATE_TYPE>
1

> <PUBCHEM_BONDANNOTATIONS>
10  23  8

$$$$
36118920
  CDK     1220141108

 47 50  0  0  0  0  0  0  0  0999 V2000
    9.5755    0.9592    0.0000 S   0  0  0  0  0  0  0  0  0  0  0  0
   13.9047    1.5470    0.0000 S   0  0  0  0  0  0  0  0  0  0  0  0
    2.8090    1.4007    0.0000 S   0  0  0  0  0  0  0  0  0  0  0  0
    5.8781    0.7284    0.0000 O   0  0  0  0  0  0  0  0  0  0  0  0
   11.3356   -2.3195    0.0000 O   0  0  0  0  0  0  0  0  0  0  0  0
   11.3356    0.6805    0.0000 N   0  0  0  0  0  0  0  0  0  0  0  0
   10.8356    2.2193    0.0000 N   0  0  0  0  0  0  0  0  0  0  0  0
   11.8356    2.2193    0.0000 N   0  0  0  0  0  0  0  0  0  0  0  0
    5.3781    2.2673    0.0000 N   0  0  0  0  0  0  0  0  0  0  0  0
    4.8781    0.7284    0.0000 N   0  0  0  0  0  0  0  0  0  0  0  0
    9.6036   -2.3195    0.0000 N   0  0  0  0  0  0  0  0  0  0  0  0
   11.3356   -0.3195    0.0000 C   0  0  0  0  0  0  0  0  0  0  0  0
    7.8813    1.3194    0.0000 C   0  0  0  0  0  0  0  0  0  0  0  0
    8.8324    1.6284    0.0000 C   0  0  0  0  0  0  0  0  0  0  0  0
   10.5266    1.2683    0.0000 C   0  0  0  0  0  0  0  0  0  0  0  0
   12.1446    1.2683    0.0000 C   0  0  0  0  0  0  0  0  0  0  0  0
    7.1382    1.9885    0.0000 C   0  0  0  0  0  0  0  0  0  0  0  0
   10.4696   -0.8195    0.0000 C   0  0  0  0  0  0  0  0  0  0  0  0
   13.0957    0.9592    0.0000 C   0  0  0  0  0  0  0  0  0  0  0  0
    6.1871    1.6795    0.0000 C   0  0  0  0  0  0  0  0  0  0  0  0
   10.4696   -1.8195    0.0000 C   0  0  0  0  0  0  0  0  0  0  0  0
   13.4047    0.0082    0.0000 C   0  0  0  0  0  0  0  0  0  0  0  0
    4.5691    1.6795    0.0000 C   0  0  0  0  0  0  0  0  0  0  0  0
   14.4047    0.0082    0.0000 C   0  0  0  0  0  0  0  0  0  0  0  0
   14.7137    0.9592    0.0000 C   0  0  0  0  0  0  0  0  0  0  0  0
    3.6180    1.9885    0.0000 C   0  0  0  0  0  0  0  0  0  0  0  0
    3.3090    2.9395    0.0000 C   0  0  0  0  0  0  0  0  0  0  0  0
    2.3090    2.9395    0.0000 C   0  0  0  0  0  0  0  0  0  0  0  0
    2.0000    1.9885    0.0000 C   0  0  0  0  0  0  0  0  0  0  0  0
   11.5477   -0.9021    0.0000 H   0  0  0  0  0  0  0  0  0  0  0  0
   11.9462   -0.2119    0.0000 H   0  0  0  0  0  0  0  0  0  0  0  0
    7.3928    0.9376    0.0000 H   0  0  0  0  0  0  0  0  0  0  0  0
    8.1724    0.7719    0.0000 H   0  0  0  0  0  0  0  0  0  0  0  0
    9.3210    2.0101    0.0000 H   0  0  0  0  0  0  0  0  0  0  0  0
    8.5413    2.1758    0.0000 H   0  0  0  0  0  0  0  0  0  0  0  0
    7.6268    2.3702    0.0000 H   0  0  0  0  0  0  0  0  0  0  0  0
    6.8471    2.5359    0.0000 H   0  0  0  0  0  0  0  0  0  0  0  0
   10.2575   -0.2369    0.0000 H   0  0  0  0  0  0  0  0  0  0  0  0
    9.8590   -0.9272    0.0000 H   0  0  0  0  0  0  0  0  0  0  0  0
   13.0403   -0.4934    0.0000 H   0  0  0  0  0  0  0  0  0  0  0  0
   14.7691   -0.4934    0.0000 H   0  0  0  0  0  0  0  0  0  0  0  0
   15.3034    1.1508    0.0000 H   0  0  0  0  0  0  0  0  0  0  0  0
    9.6036   -2.9395    0.0000 H   0  0  0  0  0  0  0  0  0  0  0  0
    9.0666   -2.0095    0.0000 H   0  0  0  0  0  0  0  0  0  0  0  0
    3.6734    3.4411    0.0000 H   0  0  0  0  0  0  0  0  0  0  0  0
    1.9446    3.4411    0.0000 H   0  0  0  0  0  0  0  0  0  0  0  0
    1.4103    1.7969    0.0000 H   0  0  0  0  0  0  0  0  0  0  0  0
  1 14  1  0  0  0  0 
  1 15  1  0  0  0  0 
  2 19  1  0  0  0  0 
  2 25  1  0  0  0  0 
  3 26  1  0  0  0  0 
  3 29  1  0  0  0  0 
  4 10  1  0  0  0  0 
  4 20  1  0  0  0  0 
  5 21  2  0  0  0  0 
  6 12  1  0  0  0  0 
  6 15  1  0  0  0  0 
  6 16  1  0  0  0  0 
  7  8  1  0  0  0  0 
  7 15  2  0  0  0  0 
  8 16  2  0  0  0  0 
  9 20  2  0  0  0  0 
  9 23  1  0  0  0  0 
 10 23  2  0  0  0  0 
 11 21  1  0  0  0  0 
 11 43  1  0  0  0  0 
 11 44  1  0  0  0  0 
 12 18  1  0  0  0  0 
 12 30  1  0  0  0  0 
 12 31  1  0  0  0  0 
 13 14  1  0  0  0  0 
 13 17  1  0  0  0  0 
 13 32  1  0  0  0  0 
 13 33  1  0  0  0  0 
 14 34  1  0  0  0  0 
 14 35  1  0  0  0  0 
 16 19  1  0  0  0  0 
 17 20  1  0  0  0  0 
 17 36  1  0  0  0  0 
 17 37  1  0  0  0  0 
 18 21  1  0  0  0  0 
 18 38  1  0  0  0  0 
 18 39  1  0  0  0  0 
 19 22  2  0  0  0  0 
 22 24  1  0  0  0  0 
 22 40  1  0  0  0  0 
 23 26  1  0  0  0  0 
 24 25  2  0  0  0  0 
 24 41  1  0  0  0  0 
 25 42  1  0  0  0  0 
 26 27  2  0  0  0  0 
 27 28  1  0  0  0  0 
 27 45  1  0  0  0  0 
 28 29  2  0  0  0  0 
 28 46  1  0  0  0  0 
 29 47  1  0  0  0  0 
M  END
> <cdk:Title>
36118920

> <cdk:Remark>
null

> <PUBCHEM_COMPOUND_CID>
36118920

> <PUBCHEM_COMPOUND_CANONICALIZED>
1

> <PUBCHEM_CACTVS_COMPLEXITY>
548

> <PUBCHEM_CACTVS_HBOND_ACCEPTOR>
9

> <PUBCHEM_CACTVS_HBOND_DONOR>
1

> <PUBCHEM_CACTVS_ROTATABLE_BOND>
10

> <PUBCHEM_CACTVS_SUBSKEYS>
AAADceB7sABgAAAAAAAAAAAAAAAAAWLEiQAAAAAAAAAAAAAB/gAAHgQcAAAACADF0wSxEYdcEAivACNyNgCT0ItgCLB9yDk4BJiIKLqg2RGEAAhknQKoiAYQAAAAAAAAAAAAAAAAAAAAAAAAAAAAAAAAAA==

> <PUBCHEM_IUPAC_OPENEYE_NAME>
3-[3-(2-thienyl)-5-[3-[3-(2-thienyl)-1,2,4-oxadiazol-5-yl]propylsulfanyl]-1,2,4-triazol-4-yl]propanamide

> <PUBCHEM_IUPAC_CAS_NAME>
3-[3-thiophen-2-yl-5-[3-(3-thiophen-2-yl-1,2,4-oxadiazol-5-yl)propylthio]-1,2,4-triazol-4-yl]propanamide

> <PUBCHEM_IUPAC_NAME>
3-[3-thiophen-2-yl-5-[3-(3-thiophen-2-yl-1,2,4-oxadiazol-5-yl)propylsulfanyl]-1,2,4-triazol-4-yl]propanamide

> <PUBCHEM_IUPAC_SYSTEMATIC_NAME>
3-[3-thiophen-2-yl-5-[3-(3-thiophen-2-yl-1,2,4-oxadiazol-5-yl)propylsulfanyl]-1,2,4-triazol-4-yl]propanamide

> <PUBCHEM_IUPAC_TRADITIONAL_NAME>
3-[3-(2-thienyl)-5-[3-[3-(2-thienyl)-1,2,4-oxadiazol-5-yl]propylthio]-1,2,4-triazol-4-yl]propionamide

> <PUBCHEM_IUPAC_INCHI>
InChI=1S/C18H18N6O2S3/c19-14(25)7-8-24-17(13-5-2-10-28-13)21-22-18(24)29-11-3-6-15-20-16(23-26-15)12-4-1-9-27-12/h1-2,4-5,9-10H,3,6-8,11H2,(H2,19,25)

> <PUBCHEM_IUPAC_INCHIKEY>
VODSZXHGEKUKNE-UHFFFAOYSA-N

> <PUBCHEM_XLOGP3_AA>
2.4

> <PUBCHEM_EXACT_MASS>
446.065337

> <PUBCHEM_MOLECULAR_FORMULA>
C18H18N6O2S3

> <PUBCHEM_MOLECULAR_WEIGHT>
446.56952

> <PUBCHEM_OPENEYE_CAN_SMILES>
C1=CSC(=C1)C2=NOC(=N2)CCCSC3=NN=C(N3CCC(=O)N)C4=CC=CS4

> <PUBCHEM_OPENEYE_ISO_SMILES>
C1=CSC(=C1)C2=NOC(=N2)CCCSC3=NN=C(N3CCC(=O)N)C4=CC=CS4

> <PUBCHEM_CACTVS_TPSA>
195

> <PUBCHEM_MONOISOTOPIC_WEIGHT>
446.065337

> <PUBCHEM_TOTAL_CHARGE>
0

> <PUBCHEM_HEAVY_ATOM_COUNT>
29

> <PUBCHEM_ATOM_DEF_STEREO_COUNT>
0

> <PUBCHEM_ATOM_UDEF_STEREO_COUNT>
0

> <PUBCHEM_BOND_DEF_STEREO_COUNT>
0

> <PUBCHEM_BOND_UDEF_STEREO_COUNT>
0

> <PUBCHEM_ISOTOPIC_ATOM_COUNT>
0

> <PUBCHEM_COMPONENT_COUNT>
1

> <PUBCHEM_CACTVS_TAUTO_COUNT>
6

> <PUBCHEM_COORDINATE_TYPE>
1

> <PUBCHEM_BONDANNOTATIONS>
10  23  8

$$$$
36118920
  CDK     1220141115

 47 50  0  0  0  0  0  0  0  0999 V2000
    9.5755    0.9592    0.0000 S   0  0  0  0  0  0  0  0  0  0  0  0
   13.9047    1.5470    0.0000 S   0  0  0  0  0  0  0  0  0  0  0  0
    2.8090    1.4007    0.0000 S   0  0  0  0  0  0  0  0  0  0  0  0
    5.8781    0.7284    0.0000 O   0  0  0  0  0  0  0  0  0  0  0  0
   11.3356   -2.3195    0.0000 O   0  0  0  0  0  0  0  0  0  0  0  0
   11.3356    0.6805    0.0000 N   0  0  0  0  0  0  0  0  0  0  0  0
   10.8356    2.2193    0.0000 N   0  0  0  0  0  0  0  0  0  0  0  0
   11.8356    2.2193    0.0000 N   0  0  0  0  0  0  0  0  0  0  0  0
    5.3781    2.2673    0.0000 N   0  0  0  0  0  0  0  0  0  0  0  0
    4.8781    0.7284    0.0000 N   0  0  0  0  0  0  0  0  0  0  0  0
    9.6036   -2.3195    0.0000 N   0  0  0  0  0  0  0  0  0  0  0  0
   11.3356   -0.3195    0.0000 C   0  0  0  0  0  0  0  0  0  0  0  0
    7.8813    1.3194    0.0000 C   0  0  0  0  0  0  0  0  0  0  0  0
    8.8324    1.6284    0.0000 C   0  0  0  0  0  0  0  0  0  0  0  0
   10.5266    1.2683    0.0000 C   0  0  0  0  0  0  0  0  0  0  0  0
   12.1446    1.2683    0.0000 C   0  0  0  0  0  0  0  0  0  0  0  0
    7.1382    1.9885    0.0000 C   0  0  0  0  0  0  0  0  0  0  0  0
   10.4696   -0.8195    0.0000 C   0  0  0  0  0  0  0  0  0  0  0  0
   13.0957    0.9592    0.0000 C   0  0  0  0  0  0  0  0  0  0  0  0
    6.1871    1.6795    0.0000 C   0  0  0  0  0  0  0  0  0  0  0  0
   10.4696   -1.8195    0.0000 C   0  0  0  0  0  0  0  0  0  0  0  0
   13.4047    0.0082    0.0000 C   0  0  0  0  0  0  0  0  0  0  0  0
    4.5691    1.6795    0.0000 C   0  0  0  0  0  0  0  0  0  0  0  0
   14.4047    0.0082    0.0000 C   0  0  0  0  0  0  0  0  0  0  0  0
   14.7137    0.9592    0.0000 C   0  0  0  0  0  0  0  0  0  0  0  0
    3.6180    1.9885    0.0000 C   0  0  0  0  0  0  0  0  0  0  0  0
    3.3090    2.9395    0.0000 C   0  0  0  0  0  0  0  0  0  0  0  0
    2.3090    2.9395    0.0000 C   0  0  0  0  0  0  0  0  0  0  0  0
    2.0000    1.9885    0.0000 C   0  0  0  0  0  0  0  0  0  0  0  0
   11.5477   -0.9021    0.0000 H   0  0  0  0  0  0  0  0  0  0  0  0
   11.9462   -0.2119    0.0000 H   0  0  0  0  0  0  0  0  0  0  0  0
    7.3928    0.9376    0.0000 H   0  0  0  0  0  0  0  0  0  0  0  0
    8.1724    0.7719    0.0000 H   0  0  0  0  0  0  0  0  0  0  0  0
    9.3210    2.0101    0.0000 H   0  0  0  0  0  0  0  0  0  0  0  0
    8.5413    2.1758    0.0000 H   0  0  0  0  0  0  0  0  0  0  0  0
    7.6268    2.3702    0.0000 H   0  0  0  0  0  0  0  0  0  0  0  0
    6.8471    2.5359    0.0000 H   0  0  0  0  0  0  0  0  0  0  0  0
   10.2575   -0.2369    0.0000 H   0  0  0  0  0  0  0  0  0  0  0  0
    9.8590   -0.9272    0.0000 H   0  0  0  0  0  0  0  0  0  0  0  0
   13.0403   -0.4934    0.0000 H   0  0  0  0  0  0  0  0  0  0  0  0
   14.7691   -0.4934    0.0000 H   0  0  0  0  0  0  0  0  0  0  0  0
   15.3034    1.1508    0.0000 H   0  0  0  0  0  0  0  0  0  0  0  0
    9.6036   -2.9395    0.0000 H   0  0  0  0  0  0  0  0  0  0  0  0
    9.0666   -2.0095    0.0000 H   0  0  0  0  0  0  0  0  0  0  0  0
    3.6734    3.4411    0.0000 H   0  0  0  0  0  0  0  0  0  0  0  0
    1.9446    3.4411    0.0000 H   0  0  0  0  0  0  0  0  0  0  0  0
    1.4103    1.7969    0.0000 H   0  0  0  0  0  0  0  0  0  0  0  0
  1 14  1  0  0  0  0 
  1 15  1  0  0  0  0 
  2 19  1  0  0  0  0 
  2 25  1  0  0  0  0 
  3 26  1  0  0  0  0 
  3 29  1  0  0  0  0 
  4 10  1  0  0  0  0 
  4 20  1  0  0  0  0 
  5 21  2  0  0  0  0 
  6 12  1  0  0  0  0 
  6 15  1  0  0  0  0 
  6 16  1  0  0  0  0 
  7  8  1  0  0  0  0 
  7 15  2  0  0  0  0 
  8 16  2  0  0  0  0 
  9 20  2  0  0  0  0 
  9 23  1  0  0  0  0 
 10 23  2  0  0  0  0 
 11 21  1  0  0  0  0 
 11 43  1  0  0  0  0 
 11 44  1  0  0  0  0 
 12 18  1  0  0  0  0 
 12 30  1  0  0  0  0 
 12 31  1  0  0  0  0 
 13 14  1  0  0  0  0 
 13 17  1  0  0  0  0 
 13 32  1  0  0  0  0 
 13 33  1  0  0  0  0 
 14 34  1  0  0  0  0 
 14 35  1  0  0  0  0 
 16 19  1  0  0  0  0 
 17 20  1  0  0  0  0 
 17 36  1  0  0  0  0 
 17 37  1  0  0  0  0 
 18 21  1  0  0  0  0 
 18 38  1  0  0  0  0 
 18 39  1  0  0  0  0 
 19 22  2  0  0  0  0 
 22 24  1  0  0  0  0 
 22 40  1  0  0  0  0 
 23 26  1  0  0  0  0 
 24 25  2  0  0  0  0 
 24 41  1  0  0  0  0 
 25 42  1  0  0  0  0 
 26 27  2  0  0  0  0 
 27 28  1  0  0  0  0 
 27 45  1  0  0  0  0 
 28 29  2  0  0  0  0 
 28 46  1  0  0  0  0 
 29 47  1  0  0  0  0 
M  END
> <cdk:Title>
36118920

> <cdk:Remark>
null

> <PUBCHEM_COMPOUND_CID>
36118920

> <PUBCHEM_COMPOUND_CANONICALIZED>
1

> <PUBCHEM_CACTVS_COMPLEXITY>
548

> <PUBCHEM_CACTVS_HBOND_ACCEPTOR>
9

> <PUBCHEM_CACTVS_HBOND_DONOR>
1

> <PUBCHEM_CACTVS_ROTATABLE_BOND>
10

> <PUBCHEM_CACTVS_SUBSKEYS>
AAADceB7sABgAAAAAAAAAAAAAAAAAWLEiQAAAAAAAAAAAAAB/gAAHgQcAAAACADF0wSxEYdcEAivACNyNgCT0ItgCLB9yDk4BJiIKLqg2RGEAAhknQKoiAYQAAAAAAAAAAAAAAAAAAAAAAAAAAAAAAAAAA==

> <PUBCHEM_IUPAC_OPENEYE_NAME>
3-[3-(2-thienyl)-5-[3-[3-(2-thienyl)-1,2,4-oxadiazol-5-yl]propylsulfanyl]-1,2,4-triazol-4-yl]propanamide

> <PUBCHEM_IUPAC_CAS_NAME>
3-[3-thiophen-2-yl-5-[3-(3-thiophen-2-yl-1,2,4-oxadiazol-5-yl)propylthio]-1,2,4-triazol-4-yl]propanamide

> <PUBCHEM_IUPAC_NAME>
3-[3-thiophen-2-yl-5-[3-(3-thiophen-2-yl-1,2,4-oxadiazol-5-yl)propylsulfanyl]-1,2,4-triazol-4-yl]propanamide

> <PUBCHEM_IUPAC_SYSTEMATIC_NAME>
3-[3-thiophen-2-yl-5-[3-(3-thiophen-2-yl-1,2,4-oxadiazol-5-yl)propylsulfanyl]-1,2,4-triazol-4-yl]propanamide

> <PUBCHEM_IUPAC_TRADITIONAL_NAME>
3-[3-(2-thienyl)-5-[3-[3-(2-thienyl)-1,2,4-oxadiazol-5-yl]propylthio]-1,2,4-triazol-4-yl]propionamide

> <PUBCHEM_IUPAC_INCHI>
InChI=1S/C18H18N6O2S3/c19-14(25)7-8-24-17(13-5-2-10-28-13)21-22-18(24)29-11-3-6-15-20-16(23-26-15)12-4-1-9-27-12/h1-2,4-5,9-10H,3,6-8,11H2,(H2,19,25)

> <PUBCHEM_IUPAC_INCHIKEY>
VODSZXHGEKUKNE-UHFFFAOYSA-N

> <PUBCHEM_XLOGP3_AA>
2.4

> <PUBCHEM_EXACT_MASS>
446.065337

> <PUBCHEM_MOLECULAR_FORMULA>
C18H18N6O2S3

> <PUBCHEM_MOLECULAR_WEIGHT>
446.56952

> <PUBCHEM_OPENEYE_CAN_SMILES>
C1=CSC(=C1)C2=NOC(=N2)CCCSC3=NN=C(N3CCC(=O)N)C4=CC=CS4

> <PUBCHEM_OPENEYE_ISO_SMILES>
C1=CSC(=C1)C2=NOC(=N2)CCCSC3=NN=C(N3CCC(=O)N)C4=CC=CS4

> <PUBCHEM_CACTVS_TPSA>
195

> <PUBCHEM_MONOISOTOPIC_WEIGHT>
446.065337

> <PUBCHEM_TOTAL_CHARGE>
0

> <PUBCHEM_HEAVY_ATOM_COUNT>
29

> <PUBCHEM_ATOM_DEF_STEREO_COUNT>
0

> <PUBCHEM_ATOM_UDEF_STEREO_COUNT>
0

> <PUBCHEM_BOND_DEF_STEREO_COUNT>
0

> <PUBCHEM_BOND_UDEF_STEREO_COUNT>
0

> <PUBCHEM_ISOTOPIC_ATOM_COUNT>
0

> <PUBCHEM_COMPONENT_COUNT>
1

> <PUBCHEM_CACTVS_TAUTO_COUNT>
6

> <PUBCHEM_COORDINATE_TYPE>
1

> <PUBCHEM_BONDANNOTATIONS>
10  23  8

$$$$
