40175032
  CDK     1220141107

 51 53  0  0  0  0  0  0  0  0999 V2000
    6.3301   -4.5000    0.0000 Cl  0  0  0  0  0  0  0  0  0  0  0  0
    3.7320    1.0000    0.0000 O   0  0  0  0  0  0  0  0  0  0  0  0
    3.7320    0.0000    0.0000 O   0  0  0  0  0  0  0  0  0  0  0  0
    8.0622   -0.5000    0.0000 O   0  0  0  0  0  0  0  0  0  0  0  0
    4.5981    2.5000    0.0000 O   0  0  0  0  0  0  0  0  0  0  0  0
    4.5981   -1.5000    0.0000 O   0  0  0  0  0  0  0  0  0  0  0  0
    6.3301   -0.5000    0.0000 N   0  0  0  0  0  0  0  0  0  0  0  0
    7.1962    1.0000    0.0000 N   0  0  0  0  0  0  0  0  0  0  0  0
    6.3301    1.5000    0.0000 C   0  0  1  0  0  0  0  0  0  0  0  0
    5.4641    1.0000    0.0000 C   0  0  0  0  0  0  0  0  0  0  0  0
    5.4641    0.0000    0.0000 C   0  0  0  0  0  0  0  0  0  0  0  0
    6.3301    2.5000    0.0000 C   0  0  0  0  0  0  0  0  0  0  0  0
    7.1962    0.0000    0.0000 C   0  0  0  0  0  0  0  0  0  0  0  0
    6.3301   -1.5000    0.0000 C   0  0  0  0  0  0  0  0  0  0  0  0
    4.5981    1.5000    0.0000 C   0  0  0  0  0  0  0  0  0  0  0  0
    5.4641    3.0000    0.0000 C   0  0  0  0  0  0  0  0  0  0  0  0
    7.1962    3.0000    0.0000 C   0  0  0  0  0  0  0  0  0  0  0  0
    4.5981   -0.5000    0.0000 C   0  0  0  0  0  0  0  0  0  0  0  0
    5.4641   -2.0000    0.0000 C   0  0  0  0  0  0  0  0  0  0  0  0
    7.1962   -2.0000    0.0000 C   0  0  0  0  0  0  0  0  0  0  0  0
    5.4641    4.0000    0.0000 C   0  0  0  0  0  0  0  0  0  0  0  0
    7.1962    4.0000    0.0000 C   0  0  0  0  0  0  0  0  0  0  0  0
    6.3301    4.5000    0.0000 C   0  0  0  0  0  0  0  0  0  0  0  0
    5.4641   -3.0000    0.0000 C   0  0  0  0  0  0  0  0  0  0  0  0
    7.1962   -3.0000    0.0000 C   0  0  0  0  0  0  0  0  0  0  0  0
    2.8660    1.5000    0.0000 C   0  0  0  0  0  0  0  0  0  0  0  0
    6.3301   -3.5000    0.0000 C   0  0  0  0  0  0  0  0  0  0  0  0
    2.8660   -0.5000    0.0000 C   0  0  0  0  0  0  0  0  0  0  0  0
    2.8660    2.5000    0.0000 C   0  0  0  0  0  0  0  0  0  0  0  0
    2.0000    0.0000    0.0000 C   0  0  0  0  0  0  0  0  0  0  0  0
    6.8671    1.8100    0.0000 H   0  0  0  0  0  0  0  0  0  0  0  0
    7.7331    1.3100    0.0000 H   0  0  0  0  0  0  0  0  0  0  0  0
    4.9272    2.6900    0.0000 H   0  0  0  0  0  0  0  0  0  0  0  0
    7.7331    2.6900    0.0000 H   0  0  0  0  0  0  0  0  0  0  0  0
    4.9272   -1.6900    0.0000 H   0  0  0  0  0  0  0  0  0  0  0  0
    7.7331   -1.6900    0.0000 H   0  0  0  0  0  0  0  0  0  0  0  0
    4.9272    4.3100    0.0000 H   0  0  0  0  0  0  0  0  0  0  0  0
    7.7331    4.3100    0.0000 H   0  0  0  0  0  0  0  0  0  0  0  0
    6.3301    5.1200    0.0000 H   0  0  0  0  0  0  0  0  0  0  0  0
    4.9272   -3.3100    0.0000 H   0  0  0  0  0  0  0  0  0  0  0  0
    7.7331   -3.3100    0.0000 H   0  0  0  0  0  0  0  0  0  0  0  0
    2.2554    1.6077    0.0000 H   0  0  0  0  0  0  0  0  0  0  0  0
    2.6540    0.9174    0.0000 H   0  0  0  0  0  0  0  0  0  0  0  0
    2.4675   -0.9749    0.0000 H   0  0  0  0  0  0  0  0  0  0  0  0
    3.2646   -0.9749    0.0000 H   0  0  0  0  0  0  0  0  0  0  0  0
    3.4860    2.5000    0.0000 H   0  0  0  0  0  0  0  0  0  0  0  0
    2.8660    3.1200    0.0000 H   0  0  0  0  0  0  0  0  0  0  0  0
    2.2460    2.5000    0.0000 H   0  0  0  0  0  0  0  0  0  0  0  0
    2.3100    0.5369    0.0000 H   0  0  0  0  0  0  0  0  0  0  0  0
    1.4631    0.3100    0.0000 H   0  0  0  0  0  0  0  0  0  0  0  0
    1.6900   -0.5369    0.0000 H   0  0  0  0  0  0  0  0  0  0  0  0
  1 27  1  0  0  0  0 
  2 15  1  0  0  0  0 
  2 26  1  0  0  0  0 
  3 18  1  0  0  0  0 
  3 28  1  0  0  0  0 
  4 13  2  0  0  0  0 
  5 15  2  0  0  0  0 
  6 18  2  0  0  0  0 
  7 11  1  0  0  0  0 
  7 13  1  0  0  0  0 
  7 14  1  0  0  0  0 
  8  9  1  0  0  0  0 
  8 13  1  0  0  0  0 
  8 32  1  0  0  0  0 
  9 10  1  0  0  0  0 
  9 12  1  1  0  0  0 
  9 31  1  0  0  0  0 
 10 11  2  0  0  0  0 
 10 15  1  0  0  0  0 
 11 18  1  0  0  0  0 
 12 16  2  0  0  0  0 
 12 17  1  0  0  0  0 
 14 19  2  0  0  0  0 
 14 20  1  0  0  0  0 
 16 21  1  0  0  0  0 
 16 33  1  0  0  0  0 
 17 22  2  0  0  0  0 
 17 34  1  0  0  0  0 
 19 24  1  0  0  0  0 
 19 35  1  0  0  0  0 
 20 25  2  0  0  0  0 
 20 36  1  0  0  0  0 
 21 23  2  0  0  0  0 
 21 37  1  0  0  0  0 
 22 23  1  0  0  0  0 
 22 38  1  0  0  0  0 
 23 39  1  0  0  0  0 
 24 27  2  0  0  0  0 
 24 40  1  0  0  0  0 
 25 27  1  0  0  0  0 
 25 41  1  0  0  0  0 
 26 29  1  0  0  0  0 
 26 42  1  0  0  0  0 
 26 43  1  0  0  0  0 
 28 30  1  0  0  0  0 
 28 44  1  0  0  0  0 
 28 45  1  0  0  0  0 
 29 46  1  0  0  0  0 
 29 47  1  0  0  0  0 
 29 48  1  0  0  0  0 
 30 49  1  0  0  0  0 
 30 50  1  0  0  0  0 
 30 51  1  0  0  0  0 
M  END
> <cdk:Title>
40175032

> <cdk:Remark>
null

> <PUBCHEM_COMPOUND_CID>
40175032

> <PUBCHEM_COMPOUND_CANONICALIZED>
1

> <PUBCHEM_CACTVS_COMPLEXITY>
681

> <PUBCHEM_CACTVS_HBOND_ACCEPTOR>
5

> <PUBCHEM_CACTVS_HBOND_DONOR>
1

> <PUBCHEM_CACTVS_ROTATABLE_BOND>
8

> <PUBCHEM_CACTVS_SUBSKEYS>
AAADceB7OAAEAAAAAAAAAAAAAAAAAAAAAAAwYIAAAAAAAAABQAAAHgIQAAAADCrhmCYzyIPABACIAiTSWACCAAAhBwAIiIGIZsiKJDrBs7GHMAhuhgLY6WeYyKCOAABAAAAAAAAAAIAAAAAAAAAAAAAAAA==

> <PUBCHEM_IUPAC_OPENEYE_NAME>
diethyl (6R)-3-(4-chlorophenyl)-2-oxo-6-phenyl-1,6-dihydropyrimidine-4,5-dicarboxylate

> <PUBCHEM_IUPAC_CAS_NAME>
(6R)-3-(4-chlorophenyl)-2-oxo-6-phenyl-1,6-dihydropyrimidine-4,5-dicarboxylic acid diethyl ester

> <PUBCHEM_IUPAC_NAME>
diethyl (6R)-3-(4-chlorophenyl)-2-oxo-6-phenyl-1,6-dihydropyrimidine-4,5-dicarboxylate

> <PUBCHEM_IUPAC_SYSTEMATIC_NAME>
diethyl (6R)-3-(4-chlorophenyl)-2-oxidanylidene-6-phenyl-1,6-dihydropyrimidine-4,5-dicarboxylate

> <PUBCHEM_IUPAC_TRADITIONAL_NAME>
(6R)-3-(4-chlorophenyl)-2-keto-6-phenyl-1,6-dihydropyrimidine-4,5-dicarboxylic acid diethyl ester

> <PUBCHEM_IUPAC_INCHI>
InChI=1S/C22H21ClN2O5/c1-3-29-20(26)17-18(14-8-6-5-7-9-14)24-22(28)25(19(17)21(27)30-4-2)16-12-10-15(23)11-13-16/h5-13,18H,3-4H2,1-2H3,(H,24,28)/t18-/m1/s1

> <PUBCHEM_IUPAC_INCHIKEY>
CFGQPMVMOGJPNB-GOSISDBHSA-N

> <PUBCHEM_XLOGP3_AA>
3.8

> <PUBCHEM_EXACT_MASS>
428.113899

> <PUBCHEM_MOLECULAR_FORMULA>
C22H21ClN2O5

> <PUBCHEM_MOLECULAR_WEIGHT>
428.86554

> <PUBCHEM_OPENEYE_CAN_SMILES>
CCOC(=O)C1=C(N(C(=O)NC1C2=CC=CC=C2)C3=CC=C(C=C3)Cl)C(=O)OCC

> <PUBCHEM_OPENEYE_ISO_SMILES>
CCOC(=O)C1=C(N(C(=O)N[C@@H]1C2=CC=CC=C2)C3=CC=C(C=C3)Cl)C(=O)OCC

> <PUBCHEM_CACTVS_TPSA>
84.9

> <PUBCHEM_MONOISOTOPIC_WEIGHT>
428.113899

> <PUBCHEM_TOTAL_CHARGE>
0

> <PUBCHEM_HEAVY_ATOM_COUNT>
30

> <PUBCHEM_ATOM_DEF_STEREO_COUNT>
1

> <PUBCHEM_ATOM_UDEF_STEREO_COUNT>
0

> <PUBCHEM_BOND_DEF_STEREO_COUNT>
0

> <PUBCHEM_BOND_UDEF_STEREO_COUNT>
0

> <PUBCHEM_ISOTOPIC_ATOM_COUNT>
0

> <PUBCHEM_COMPONENT_COUNT>
1

> <PUBCHEM_CACTVS_TAUTO_COUNT>
2

> <PUBCHEM_COORDINATE_TYPE>
1

> <PUBCHEM_BONDANNOTATIONS>
12  16  8

$$$$
40175032
  CDK     1220141108

 51 53  0  0  0  0  0  0  0  0999 V2000
    6.3301   -4.5000    0.0000 Cl  0  0  0  0  0  0  0  0  0  0  0  0
    3.7320    1.0000    0.0000 O   0  0  0  0  0  0  0  0  0  0  0  0
    3.7320    0.0000    0.0000 O   0  0  0  0  0  0  0  0  0  0  0  0
    8.0622   -0.5000    0.0000 O   0  0  0  0  0  0  0  0  0  0  0  0
    4.5981    2.5000    0.0000 O   0  0  0  0  0  0  0  0  0  0  0  0
    4.5981   -1.5000    0.0000 O   0  0  0  0  0  0  0  0  0  0  0  0
    6.3301   -0.5000    0.0000 N   0  0  0  0  0  0  0  0  0  0  0  0
    7.1962    1.0000    0.0000 N   0  0  0  0  0  0  0  0  0  0  0  0
    6.3301    1.5000    0.0000 C   0  0  1  0  0  0  0  0  0  0  0  0
    5.4641    1.0000    0.0000 C   0  0  0  0  0  0  0  0  0  0  0  0
    5.4641    0.0000    0.0000 C   0  0  0  0  0  0  0  0  0  0  0  0
    6.3301    2.5000    0.0000 C   0  0  0  0  0  0  0  0  0  0  0  0
    7.1962    0.0000    0.0000 C   0  0  0  0  0  0  0  0  0  0  0  0
    6.3301   -1.5000    0.0000 C   0  0  0  0  0  0  0  0  0  0  0  0
    4.5981    1.5000    0.0000 C   0  0  0  0  0  0  0  0  0  0  0  0
    5.4641    3.0000    0.0000 C   0  0  0  0  0  0  0  0  0  0  0  0
    7.1962    3.0000    0.0000 C   0  0  0  0  0  0  0  0  0  0  0  0
    4.5981   -0.5000    0.0000 C   0  0  0  0  0  0  0  0  0  0  0  0
    5.4641   -2.0000    0.0000 C   0  0  0  0  0  0  0  0  0  0  0  0
    7.1962   -2.0000    0.0000 C   0  0  0  0  0  0  0  0  0  0  0  0
    5.4641    4.0000    0.0000 C   0  0  0  0  0  0  0  0  0  0  0  0
    7.1962    4.0000    0.0000 C   0  0  0  0  0  0  0  0  0  0  0  0
    6.3301    4.5000    0.0000 C   0  0  0  0  0  0  0  0  0  0  0  0
    5.4641   -3.0000    0.0000 C   0  0  0  0  0  0  0  0  0  0  0  0
    7.1962   -3.0000    0.0000 C   0  0  0  0  0  0  0  0  0  0  0  0
    2.8660    1.5000    0.0000 C   0  0  0  0  0  0  0  0  0  0  0  0
    6.3301   -3.5000    0.0000 C   0  0  0  0  0  0  0  0  0  0  0  0
    2.8660   -0.5000    0.0000 C   0  0  0  0  0  0  0  0  0  0  0  0
    2.8660    2.5000    0.0000 C   0  0  0  0  0  0  0  0  0  0  0  0
    2.0000    0.0000    0.0000 C   0  0  0  0  0  0  0  0  0  0  0  0
    6.8671    1.8100    0.0000 H   0  0  0  0  0  0  0  0  0  0  0  0
    7.7331    1.3100    0.0000 H   0  0  0  0  0  0  0  0  0  0  0  0
    4.9272    2.6900    0.0000 H   0  0  0  0  0  0  0  0  0  0  0  0
    7.7331    2.6900    0.0000 H   0  0  0  0  0  0  0  0  0  0  0  0
    4.9272   -1.6900    0.0000 H   0  0  0  0  0  0  0  0  0  0  0  0
    7.7331   -1.6900    0.0000 H   0  0  0  0  0  0  0  0  0  0  0  0
    4.9272    4.3100    0.0000 H   0  0  0  0  0  0  0  0  0  0  0  0
    7.7331    4.3100    0.0000 H   0  0  0  0  0  0  0  0  0  0  0  0
    6.3301    5.1200    0.0000 H   0  0  0  0  0  0  0  0  0  0  0  0
    4.9272   -3.3100    0.0000 H   0  0  0  0  0  0  0  0  0  0  0  0
    7.7331   -3.3100    0.0000 H   0  0  0  0  0  0  0  0  0  0  0  0
    2.2554    1.6077    0.0000 H   0  0  0  0  0  0  0  0  0  0  0  0
    2.6540    0.9174    0.0000 H   0  0  0  0  0  0  0  0  0  0  0  0
    2.4675   -0.9749    0.0000 H   0  0  0  0  0  0  0  0  0  0  0  0
    3.2646   -0.9749    0.0000 H   0  0  0  0  0  0  0  0  0  0  0  0
    3.4860    2.5000    0.0000 H   0  0  0  0  0  0  0  0  0  0  0  0
    2.8660    3.1200    0.0000 H   0  0  0  0  0  0  0  0  0  0  0  0
    2.2460    2.5000    0.0000 H   0  0  0  0  0  0  0  0  0  0  0  0
    2.3100    0.5369    0.0000 H   0  0  0  0  0  0  0  0  0  0  0  0
    1.4631    0.3100    0.0000 H   0  0  0  0  0  0  0  0  0  0  0  0
    1.6900   -0.5369    0.0000 H   0  0  0  0  0  0  0  0  0  0  0  0
  1 27  1  0  0  0  0 
  2 15  1  0  0  0  0 
  2 26  1  0  0  0  0 
  3 18  1  0  0  0  0 
  3 28  1  0  0  0  0 
  4 13  2  0  0  0  0 
  5 15  2  0  0  0  0 
  6 18  2  0  0  0  0 
  7 11  1  0  0  0  0 
  7 13  1  0  0  0  0 
  7 14  1  0  0  0  0 
  8  9  1  0  0  0  0 
  8 13  1  0  0  0  0 
  8 32  1  0  0  0  0 
  9 10  1  0  0  0  0 
  9 12  1  1  0  0  0 
  9 31  1  0  0  0  0 
 10 11  2  0  0  0  0 
 10 15  1  0  0  0  0 
 11 18  1  0  0  0  0 
 12 16  2  0  0  0  0 
 12 17  1  0  0  0  0 
 14 19  2  0  0  0  0 
 14 20  1  0  0  0  0 
 16 21  1  0  0  0  0 
 16 33  1  0  0  0  0 
 17 22  2  0  0  0  0 
 17 34  1  0  0  0  0 
 19 24  1  0  0  0  0 
 19 35  1  0  0  0  0 
 20 25  2  0  0  0  0 
 20 36  1  0  0  0  0 
 21 23  2  0  0  0  0 
 21 37  1  0  0  0  0 
 22 23  1  0  0  0  0 
 22 38  1  0  0  0  0 
 23 39  1  0  0  0  0 
 24 27  2  0  0  0  0 
 24 40  1  0  0  0  0 
 25 27  1  0  0  0  0 
 25 41  1  0  0  0  0 
 26 29  1  0  0  0  0 
 26 42  1  0  0  0  0 
 26 43  1  0  0  0  0 
 28 30  1  0  0  0  0 
 28 44  1  0  0  0  0 
 28 45  1  0  0  0  0 
 29 46  1  0  0  0  0 
 29 47  1  0  0  0  0 
 29 48  1  0  0  0  0 
 30 49  1  0  0  0  0 
 30 50  1  0  0  0  0 
 30 51  1  0  0  0  0 
M  END
> <cdk:Title>
40175032

> <cdk:Remark>
null

> <PUBCHEM_COMPOUND_CID>
40175032

> <PUBCHEM_COMPOUND_CANONICALIZED>
1

> <PUBCHEM_CACTVS_COMPLEXITY>
681

> <PUBCHEM_CACTVS_HBOND_ACCEPTOR>
5

> <PUBCHEM_CACTVS_HBOND_DONOR>
1

> <PUBCHEM_CACTVS_ROTATABLE_BOND>
8

> <PUBCHEM_CACTVS_SUBSKEYS>
AAADceB7OAAEAAAAAAAAAAAAAAAAAAAAAAAwYIAAAAAAAAABQAAAHgIQAAAADCrhmCYzyIPABACIAiTSWACCAAAhBwAIiIGIZsiKJDrBs7GHMAhuhgLY6WeYyKCOAABAAAAAAAAAAIAAAAAAAAAAAAAAAA==

> <PUBCHEM_IUPAC_OPENEYE_NAME>
diethyl (6R)-3-(4-chlorophenyl)-2-oxo-6-phenyl-1,6-dihydropyrimidine-4,5-dicarboxylate

> <PUBCHEM_IUPAC_CAS_NAME>
(6R)-3-(4-chlorophenyl)-2-oxo-6-phenyl-1,6-dihydropyrimidine-4,5-dicarboxylic acid diethyl ester

> <PUBCHEM_IUPAC_NAME>
diethyl (6R)-3-(4-chlorophenyl)-2-oxo-6-phenyl-1,6-dihydropyrimidine-4,5-dicarboxylate

> <PUBCHEM_IUPAC_SYSTEMATIC_NAME>
diethyl (6R)-3-(4-chlorophenyl)-2-oxidanylidene-6-phenyl-1,6-dihydropyrimidine-4,5-dicarboxylate

> <PUBCHEM_IUPAC_TRADITIONAL_NAME>
(6R)-3-(4-chlorophenyl)-2-keto-6-phenyl-1,6-dihydropyrimidine-4,5-dicarboxylic acid diethyl ester

> <PUBCHEM_IUPAC_INCHI>
InChI=1S/C22H21ClN2O5/c1-3-29-20(26)17-18(14-8-6-5-7-9-14)24-22(28)25(19(17)21(27)30-4-2)16-12-10-15(23)11-13-16/h5-13,18H,3-4H2,1-2H3,(H,24,28)/t18-/m1/s1

> <PUBCHEM_IUPAC_INCHIKEY>
CFGQPMVMOGJPNB-GOSISDBHSA-N

> <PUBCHEM_XLOGP3_AA>
3.8

> <PUBCHEM_EXACT_MASS>
428.113899

> <PUBCHEM_MOLECULAR_FORMULA>
C22H21ClN2O5

> <PUBCHEM_MOLECULAR_WEIGHT>
428.86554

> <PUBCHEM_OPENEYE_CAN_SMILES>
CCOC(=O)C1=C(N(C(=O)NC1C2=CC=CC=C2)C3=CC=C(C=C3)Cl)C(=O)OCC

> <PUBCHEM_OPENEYE_ISO_SMILES>
CCOC(=O)C1=C(N(C(=O)N[C@@H]1C2=CC=CC=C2)C3=CC=C(C=C3)Cl)C(=O)OCC

> <PUBCHEM_CACTVS_TPSA>
84.9

> <PUBCHEM_MONOISOTOPIC_WEIGHT>
428.113899

> <PUBCHEM_TOTAL_CHARGE>
0

> <PUBCHEM_HEAVY_ATOM_COUNT>
30

> <PUBCHEM_ATOM_DEF_STEREO_COUNT>
1

> <PUBCHEM_ATOM_UDEF_STEREO_COUNT>
0

> <PUBCHEM_BOND_DEF_STEREO_COUNT>
0

> <PUBCHEM_BOND_UDEF_STEREO_COUNT>
0

> <PUBCHEM_ISOTOPIC_ATOM_COUNT>
0

> <PUBCHEM_COMPONENT_COUNT>
1

> <PUBCHEM_CACTVS_TAUTO_COUNT>
2

> <PUBCHEM_COORDINATE_TYPE>
1

> <PUBCHEM_BONDANNOTATIONS>
12  16  8

$$$$
40175032
  CDK     1220141115

 51 53  0  0  0  0  0  0  0  0999 V2000
    6.3301   -4.5000    0.0000 Cl  0  0  0  0  0  0  0  0  0  0  0  0
    3.7320    1.0000    0.0000 O   0  0  0  0  0  0  0  0  0  0  0  0
    3.7320    0.0000    0.0000 O   0  0  0  0  0  0  0  0  0  0  0  0
    8.0622   -0.5000    0.0000 O   0  0  0  0  0  0  0  0  0  0  0  0
    4.5981    2.5000    0.0000 O   0  0  0  0  0  0  0  0  0  0  0  0
    4.5981   -1.5000    0.0000 O   0  0  0  0  0  0  0  0  0  0  0  0
    6.3301   -0.5000    0.0000 N   0  0  0  0  0  0  0  0  0  0  0  0
    7.1962    1.0000    0.0000 N   0  0  0  0  0  0  0  0  0  0  0  0
    6.3301    1.5000    0.0000 C   0  0  1  0  0  0  0  0  0  0  0  0
    5.4641    1.0000    0.0000 C   0  0  0  0  0  0  0  0  0  0  0  0
    5.4641    0.0000    0.0000 C   0  0  0  0  0  0  0  0  0  0  0  0
    6.3301    2.5000    0.0000 C   0  0  0  0  0  0  0  0  0  0  0  0
    7.1962    0.0000    0.0000 C   0  0  0  0  0  0  0  0  0  0  0  0
    6.3301   -1.5000    0.0000 C   0  0  0  0  0  0  0  0  0  0  0  0
    4.5981    1.5000    0.0000 C   0  0  0  0  0  0  0  0  0  0  0  0
    5.4641    3.0000    0.0000 C   0  0  0  0  0  0  0  0  0  0  0  0
    7.1962    3.0000    0.0000 C   0  0  0  0  0  0  0  0  0  0  0  0
    4.5981   -0.5000    0.0000 C   0  0  0  0  0  0  0  0  0  0  0  0
    5.4641   -2.0000    0.0000 C   0  0  0  0  0  0  0  0  0  0  0  0
    7.1962   -2.0000    0.0000 C   0  0  0  0  0  0  0  0  0  0  0  0
    5.4641    4.0000    0.0000 C   0  0  0  0  0  0  0  0  0  0  0  0
    7.1962    4.0000    0.0000 C   0  0  0  0  0  0  0  0  0  0  0  0
    6.3301    4.5000    0.0000 C   0  0  0  0  0  0  0  0  0  0  0  0
    5.4641   -3.0000    0.0000 C   0  0  0  0  0  0  0  0  0  0  0  0
    7.1962   -3.0000    0.0000 C   0  0  0  0  0  0  0  0  0  0  0  0
    2.8660    1.5000    0.0000 C   0  0  0  0  0  0  0  0  0  0  0  0
    6.3301   -3.5000    0.0000 C   0  0  0  0  0  0  0  0  0  0  0  0
    2.8660   -0.5000    0.0000 C   0  0  0  0  0  0  0  0  0  0  0  0
    2.8660    2.5000    0.0000 C   0  0  0  0  0  0  0  0  0  0  0  0
    2.0000    0.0000    0.0000 C   0  0  0  0  0  0  0  0  0  0  0  0
    6.8671    1.8100    0.0000 H   0  0  0  0  0  0  0  0  0  0  0  0
    7.7331    1.3100    0.0000 H   0  0  0  0  0  0  0  0  0  0  0  0
    4.9272    2.6900    0.0000 H   0  0  0  0  0  0  0  0  0  0  0  0
    7.7331    2.6900    0.0000 H   0  0  0  0  0  0  0  0  0  0  0  0
    4.9272   -1.6900    0.0000 H   0  0  0  0  0  0  0  0  0  0  0  0
    7.7331   -1.6900    0.0000 H   0  0  0  0  0  0  0  0  0  0  0  0
    4.9272    4.3100    0.0000 H   0  0  0  0  0  0  0  0  0  0  0  0
    7.7331    4.3100    0.0000 H   0  0  0  0  0  0  0  0  0  0  0  0
    6.3301    5.1200    0.0000 H   0  0  0  0  0  0  0  0  0  0  0  0
    4.9272   -3.3100    0.0000 H   0  0  0  0  0  0  0  0  0  0  0  0
    7.7331   -3.3100    0.0000 H   0  0  0  0  0  0  0  0  0  0  0  0
    2.2554    1.6077    0.0000 H   0  0  0  0  0  0  0  0  0  0  0  0
    2.6540    0.9174    0.0000 H   0  0  0  0  0  0  0  0  0  0  0  0
    2.4675   -0.9749    0.0000 H   0  0  0  0  0  0  0  0  0  0  0  0
    3.2646   -0.9749    0.0000 H   0  0  0  0  0  0  0  0  0  0  0  0
    3.4860    2.5000    0.0000 H   0  0  0  0  0  0  0  0  0  0  0  0
    2.8660    3.1200    0.0000 H   0  0  0  0  0  0  0  0  0  0  0  0
    2.2460    2.5000    0.0000 H   0  0  0  0  0  0  0  0  0  0  0  0
    2.3100    0.5369    0.0000 H   0  0  0  0  0  0  0  0  0  0  0  0
    1.4631    0.3100    0.0000 H   0  0  0  0  0  0  0  0  0  0  0  0
    1.6900   -0.5369    0.0000 H   0  0  0  0  0  0  0  0  0  0  0  0
  1 27  1  0  0  0  0 
  2 15  1  0  0  0  0 
  2 26  1  0  0  0  0 
  3 18  1  0  0  0  0 
  3 28  1  0  0  0  0 
  4 13  2  0  0  0  0 
  5 15  2  0  0  0  0 
  6 18  2  0  0  0  0 
  7 11  1  0  0  0  0 
  7 13  1  0  0  0  0 
  7 14  1  0  0  0  0 
  8  9  1  0  0  0  0 
  8 13  1  0  0  0  0 
  8 32  1  0  0  0  0 
  9 10  1  0  0  0  0 
  9 12  1  1  0  0  0 
  9 31  1  0  0  0  0 
 10 11  2  0  0  0  0 
 10 15  1  0  0  0  0 
 11 18  1  0  0  0  0 
 12 16  2  0  0  0  0 
 12 17  1  0  0  0  0 
 14 19  2  0  0  0  0 
 14 20  1  0  0  0  0 
 16 21  1  0  0  0  0 
 16 33  1  0  0  0  0 
 17 22  2  0  0  0  0 
 17 34  1  0  0  0  0 
 19 24  1  0  0  0  0 
 19 35  1  0  0  0  0 
 20 25  2  0  0  0  0 
 20 36  1  0  0  0  0 
 21 23  2  0  0  0  0 
 21 37  1  0  0  0  0 
 22 23  1  0  0  0  0 
 22 38  1  0  0  0  0 
 23 39  1  0  0  0  0 
 24 27  2  0  0  0  0 
 24 40  1  0  0  0  0 
 25 27  1  0  0  0  0 
 25 41  1  0  0  0  0 
 26 29  1  0  0  0  0 
 26 42  1  0  0  0  0 
 26 43  1  0  0  0  0 
 28 30  1  0  0  0  0 
 28 44  1  0  0  0  0 
 28 45  1  0  0  0  0 
 29 46  1  0  0  0  0 
 29 47  1  0  0  0  0 
 29 48  1  0  0  0  0 
 30 49  1  0  0  0  0 
 30 50  1  0  0  0  0 
 30 51  1  0  0  0  0 
M  END
> <cdk:Title>
40175032

> <cdk:Remark>
null

> <PUBCHEM_COMPOUND_CID>
40175032

> <PUBCHEM_COMPOUND_CANONICALIZED>
1

> <PUBCHEM_CACTVS_COMPLEXITY>
681

> <PUBCHEM_CACTVS_HBOND_ACCEPTOR>
5

> <PUBCHEM_CACTVS_HBOND_DONOR>
1

> <PUBCHEM_CACTVS_ROTATABLE_BOND>
8

> <PUBCHEM_CACTVS_SUBSKEYS>
AAADceB7OAAEAAAAAAAAAAAAAAAAAAAAAAAwYIAAAAAAAAABQAAAHgIQAAAADCrhmCYzyIPABACIAiTSWACCAAAhBwAIiIGIZsiKJDrBs7GHMAhuhgLY6WeYyKCOAABAAAAAAAAAAIAAAAAAAAAAAAAAAA==

> <PUBCHEM_IUPAC_OPENEYE_NAME>
diethyl (6R)-3-(4-chlorophenyl)-2-oxo-6-phenyl-1,6-dihydropyrimidine-4,5-dicarboxylate

> <PUBCHEM_IUPAC_CAS_NAME>
(6R)-3-(4-chlorophenyl)-2-oxo-6-phenyl-1,6-dihydropyrimidine-4,5-dicarboxylic acid diethyl ester

> <PUBCHEM_IUPAC_NAME>
diethyl (6R)-3-(4-chlorophenyl)-2-oxo-6-phenyl-1,6-dihydropyrimidine-4,5-dicarboxylate

> <PUBCHEM_IUPAC_SYSTEMATIC_NAME>
diethyl (6R)-3-(4-chlorophenyl)-2-oxidanylidene-6-phenyl-1,6-dihydropyrimidine-4,5-dicarboxylate

> <PUBCHEM_IUPAC_TRADITIONAL_NAME>
(6R)-3-(4-chlorophenyl)-2-keto-6-phenyl-1,6-dihydropyrimidine-4,5-dicarboxylic acid diethyl ester

> <PUBCHEM_IUPAC_INCHI>
InChI=1S/C22H21ClN2O5/c1-3-29-20(26)17-18(14-8-6-5-7-9-14)24-22(28)25(19(17)21(27)30-4-2)16-12-10-15(23)11-13-16/h5-13,18H,3-4H2,1-2H3,(H,24,28)/t18-/m1/s1

> <PUBCHEM_IUPAC_INCHIKEY>
CFGQPMVMOGJPNB-GOSISDBHSA-N

> <PUBCHEM_XLOGP3_AA>
3.8

> <PUBCHEM_EXACT_MASS>
428.113899

> <PUBCHEM_MOLECULAR_FORMULA>
C22H21ClN2O5

> <PUBCHEM_MOLECULAR_WEIGHT>
428.86554

> <PUBCHEM_OPENEYE_CAN_SMILES>
CCOC(=O)C1=C(N(C(=O)NC1C2=CC=CC=C2)C3=CC=C(C=C3)Cl)C(=O)OCC

> <PUBCHEM_OPENEYE_ISO_SMILES>
CCOC(=O)C1=C(N(C(=O)N[C@@H]1C2=CC=CC=C2)C3=CC=C(C=C3)Cl)C(=O)OCC

> <PUBCHEM_CACTVS_TPSA>
84.9

> <PUBCHEM_MONOISOTOPIC_WEIGHT>
428.113899

> <PUBCHEM_TOTAL_CHARGE>
0

> <PUBCHEM_HEAVY_ATOM_COUNT>
30

> <PUBCHEM_ATOM_DEF_STEREO_COUNT>
1

> <PUBCHEM_ATOM_UDEF_STEREO_COUNT>
0

> <PUBCHEM_BOND_DEF_STEREO_COUNT>
0

> <PUBCHEM_BOND_UDEF_STEREO_COUNT>
0

> <PUBCHEM_ISOTOPIC_ATOM_COUNT>
0

> <PUBCHEM_COMPONENT_COUNT>
1

> <PUBCHEM_CACTVS_TAUTO_COUNT>
2

> <PUBCHEM_COORDINATE_TYPE>
1

> <PUBCHEM_BONDANNOTATIONS>
12  16  8

$$$$
