46173988
  CDK     1220141107

 40 40  0  0  0  0  0  0  0  0999 V2000
    5.1350    2.4050    0.0000 O   0  0  0  0  0  0  0  0  0  0  0  0
    4.2690    0.9050    0.0000 O   0  0  0  0  0  0  0  0  0  0  0  0
    2.5369   -4.0950    0.0000 O   0  0  0  0  0  0  0  0  0  0  0  0
    4.2690   -5.0950    0.0000 O   0  0  0  0  0  0  0  0  0  0  0  0
    7.7331    3.9050    0.0000 C   0  0  0  0  0  0  0  0  0  0  0  0
    6.8671    3.4050    0.0000 C   0  0  0  0  0  0  0  0  0  0  0  0
    7.7331    4.9050    0.0000 C   0  0  0  0  0  0  0  0  0  0  0  0
    6.8671    2.4050    0.0000 C   0  0  0  0  0  0  0  0  0  0  0  0
    8.5991    5.4050    0.0000 C   0  0  0  0  0  0  0  0  0  0  0  0
    6.0010    1.9050    0.0000 C   0  0  0  0  0  0  0  0  0  0  0  0
    6.0010    0.9050    0.0000 C   0  0  0  0  0  0  0  0  0  0  0  0
    5.1350    0.4050    0.0000 C   0  0  0  0  0  0  0  0  0  0  0  0
    4.2690   -2.0950    0.0000 C   0  0  0  0  0  0  0  0  0  0  0  0
    5.1350   -0.5950    0.0000 C   0  0  0  0  0  0  0  0  0  0  0  0
    4.2690   -1.0950    0.0000 C   0  0  0  0  0  0  0  0  0  0  0  0
    3.4030   -2.5950    0.0000 C   0  0  0  0  0  0  0  0  0  0  0  0
    5.1350   -2.5950    0.0000 C   0  0  0  0  0  0  0  0  0  0  0  0
    3.4030   -3.5950    0.0000 C   0  0  0  0  0  0  0  0  0  0  0  0
    4.2690   -4.0950    0.0000 C   0  0  0  0  0  0  0  0  0  0  0  0
    5.1350   -3.5950    0.0000 C   0  0  0  0  0  0  0  0  0  0  0  0
    7.9451    3.3224    0.0000 H   0  0  0  0  0  0  0  0  0  0  0  0
    8.3437    4.0127    0.0000 H   0  0  0  0  0  0  0  0  0  0  0  0
    6.6550    3.9876    0.0000 H   0  0  0  0  0  0  0  0  0  0  0  0
    6.2565    3.2973    0.0000 H   0  0  0  0  0  0  0  0  0  0  0  0
    7.5210    5.4876    0.0000 H   0  0  0  0  0  0  0  0  0  0  0  0
    7.1225    4.7973    0.0000 H   0  0  0  0  0  0  0  0  0  0  0  0
    7.0791    1.8224    0.0000 H   0  0  0  0  0  0  0  0  0  0  0  0
    7.4776    2.5127    0.0000 H   0  0  0  0  0  0  0  0  0  0  0  0
    8.9091    4.8681    0.0000 H   0  0  0  0  0  0  0  0  0  0  0  0
    9.1360    5.7150    0.0000 H   0  0  0  0  0  0  0  0  0  0  0  0
    8.2891    5.9419    0.0000 H   0  0  0  0  0  0  0  0  0  0  0  0
    6.5380    0.5950    0.0000 H   0  0  0  0  0  0  0  0  0  0  0  0
    5.6720   -0.9050    0.0000 H   0  0  0  0  0  0  0  0  0  0  0  0
    3.7320   -0.7850    0.0000 H   0  0  0  0  0  0  0  0  0  0  0  0
    2.8660   -2.2850    0.0000 H   0  0  0  0  0  0  0  0  0  0  0  0
    5.6720   -2.2850    0.0000 H   0  0  0  0  0  0  0  0  0  0  0  0
    5.6720   -3.9050    0.0000 H   0  0  0  0  0  0  0  0  0  0  0  0
    4.2690    1.5250    0.0000 H   0  0  0  0  0  0  0  0  0  0  0  0
    2.0000   -3.7850    0.0000 H   0  0  0  0  0  0  0  0  0  0  0  0
    4.8059   -5.4050    0.0000 H   0  0  0  0  0  0  0  0  0  0  0  0
  1 10  2  0  0  0  0 
  2 12  1  0  0  0  0 
  2 38  1  0  0  0  0 
  3 18  1  0  0  0  0 
  3 39  1  0  0  0  0 
  4 19  1  0  0  0  0 
  4 40  1  0  0  0  0 
  5  6  1  0  0  0  0 
  5  7  1  0  0  0  0 
  5 21  1  0  0  0  0 
  5 22  1  0  0  0  0 
  6  8  1  0  0  0  0 
  6 23  1  0  0  0  0 
  6 24  1  0  0  0  0 
  7  9  1  0  0  0  0 
  7 25  1  0  0  0  0 
  7 26  1  0  0  0  0 
  8 10  1  0  0  0  0 
  8 27  1  0  0  0  0 
  8 28  1  0  0  0  0 
  9 29  1  0  0  0  0 
  9 30  1  0  0  0  0 
  9 31  1  0  0  0  0 
 10 11  1  0  0  0  0 
 11 12  2  0  0  0  0 
 11 32  1  0  0  0  0 
 12 14  1  0  0  0  0 
 13 15  1  0  0  0  0 
 13 16  2  0  0  0  0 
 13 17  1  0  0  0  0 
 14 15  2  0  0  0  0 
 14 33  1  0  0  0  0 
 15 34  1  0  0  0  0 
 16 18  1  0  0  0  0 
 16 35  1  0  0  0  0 
 17 20  2  0  0  0  0 
 17 36  1  0  0  0  0 
 18 19  2  0  0  0  0 
 19 20  1  0  0  0  0 
 20 37  1  0  0  0  0 
M  END
> <cdk:Title>
46173988

> <cdk:Remark>
null

> <PUBCHEM_COMPOUND_CID>
46173988

> <PUBCHEM_COMPOUND_CANONICALIZED>
1

> <PUBCHEM_CACTVS_COMPLEXITY>
360

> <PUBCHEM_CACTVS_HBOND_ACCEPTOR>
4

> <PUBCHEM_CACTVS_HBOND_DONOR>
3

> <PUBCHEM_CACTVS_ROTATABLE_BOND>
7

> <PUBCHEM_CACTVS_SUBSKEYS>
AAADceB4OAAAAAAAAAAAAAAAAAAAAAAAAAAwAAAAAAAAAAABAAAAGgAACAAADASAmAAyBoAAAgCIAqBSAAACAAAgIAAIiAEGiMgJJjKCERKAcAEkwBEJmQeIyBAOIAABAAAAQABAAAIAAACAAAAAAAAAAA==

> <PUBCHEM_IUPAC_OPENEYE_NAME>
(1E,3Z)-1-(3,4-dihydroxyphenyl)-3-hydroxy-deca-1,3-dien-5-one

> <PUBCHEM_IUPAC_CAS_NAME>
(1E,3Z)-1-(3,4-dihydroxyphenyl)-3-hydroxy-5-deca-1,3-dienone

> <PUBCHEM_IUPAC_NAME>
(1E,3Z)-1-(3,4-dihydroxyphenyl)-3-hydroxydeca-1,3-dien-5-one

> <PUBCHEM_IUPAC_SYSTEMATIC_NAME>
(1E,3Z)-1-[3,4-bis(oxidanyl)phenyl]-3-oxidanyl-deca-1,3-dien-5-one

> <PUBCHEM_IUPAC_TRADITIONAL_NAME>
(1E,3Z)-1-(3,4-dihydroxyphenyl)-3-hydroxy-deca-1,3-dien-5-one

> <PUBCHEM_IUPAC_INCHI>
InChI=1S/C16H20O4/c1-2-3-4-5-13(17)11-14(18)8-6-12-7-9-15(19)16(20)10-12/h6-11,18-20H,2-5H2,1H3/b8-6+,14-11-

> <PUBCHEM_IUPAC_INCHIKEY>
NTKDMBBQTDNBSR-SQKGQWCESA-N

> <PUBCHEM_XLOGP3_AA>
3.9

> <PUBCHEM_EXACT_MASS>
276.136159

> <PUBCHEM_MOLECULAR_FORMULA>
C16H20O4

> <PUBCHEM_MOLECULAR_WEIGHT>
276.3276

> <PUBCHEM_OPENEYE_CAN_SMILES>
CCCCCC(=O)C=C(C=CC1=CC(=C(C=C1)O)O)O

> <PUBCHEM_OPENEYE_ISO_SMILES>
CCCCCC(=O)/C=C(/C=C/C1=CC(=C(C=C1)O)O)\O

> <PUBCHEM_CACTVS_TPSA>
77.8

> <PUBCHEM_MONOISOTOPIC_WEIGHT>
276.136159

> <PUBCHEM_TOTAL_CHARGE>
0

> <PUBCHEM_HEAVY_ATOM_COUNT>
20

> <PUBCHEM_ATOM_DEF_STEREO_COUNT>
0

> <PUBCHEM_ATOM_UDEF_STEREO_COUNT>
0

> <PUBCHEM_BOND_DEF_STEREO_COUNT>
2

> <PUBCHEM_BOND_UDEF_STEREO_COUNT>
0

> <PUBCHEM_ISOTOPIC_ATOM_COUNT>
0

> <PUBCHEM_COMPONENT_COUNT>
1

> <PUBCHEM_CACTVS_TAUTO_COUNT>
74

> <PUBCHEM_COORDINATE_TYPE>
1

> <PUBCHEM_BONDANNOTATIONS>
13  16  8

$$$$
46173988
  CDK     1220141108

 40 40  0  0  0  0  0  0  0  0999 V2000
    5.1350    2.4050    0.0000 O   0  0  0  0  0  0  0  0  0  0  0  0
    4.2690    0.9050    0.0000 O   0  0  0  0  0  0  0  0  0  0  0  0
    2.5369   -4.0950    0.0000 O   0  0  0  0  0  0  0  0  0  0  0  0
    4.2690   -5.0950    0.0000 O   0  0  0  0  0  0  0  0  0  0  0  0
    7.7331    3.9050    0.0000 C   0  0  0  0  0  0  0  0  0  0  0  0
    6.8671    3.4050    0.0000 C   0  0  0  0  0  0  0  0  0  0  0  0
    7.7331    4.9050    0.0000 C   0  0  0  0  0  0  0  0  0  0  0  0
    6.8671    2.4050    0.0000 C   0  0  0  0  0  0  0  0  0  0  0  0
    8.5991    5.4050    0.0000 C   0  0  0  0  0  0  0  0  0  0  0  0
    6.0010    1.9050    0.0000 C   0  0  0  0  0  0  0  0  0  0  0  0
    6.0010    0.9050    0.0000 C   0  0  0  0  0  0  0  0  0  0  0  0
    5.1350    0.4050    0.0000 C   0  0  0  0  0  0  0  0  0  0  0  0
    4.2690   -2.0950    0.0000 C   0  0  0  0  0  0  0  0  0  0  0  0
    5.1350   -0.5950    0.0000 C   0  0  0  0  0  0  0  0  0  0  0  0
    4.2690   -1.0950    0.0000 C   0  0  0  0  0  0  0  0  0  0  0  0
    3.4030   -2.5950    0.0000 C   0  0  0  0  0  0  0  0  0  0  0  0
    5.1350   -2.5950    0.0000 C   0  0  0  0  0  0  0  0  0  0  0  0
    3.4030   -3.5950    0.0000 C   0  0  0  0  0  0  0  0  0  0  0  0
    4.2690   -4.0950    0.0000 C   0  0  0  0  0  0  0  0  0  0  0  0
    5.1350   -3.5950    0.0000 C   0  0  0  0  0  0  0  0  0  0  0  0
    7.9451    3.3224    0.0000 H   0  0  0  0  0  0  0  0  0  0  0  0
    8.3437    4.0127    0.0000 H   0  0  0  0  0  0  0  0  0  0  0  0
    6.6550    3.9876    0.0000 H   0  0  0  0  0  0  0  0  0  0  0  0
    6.2565    3.2973    0.0000 H   0  0  0  0  0  0  0  0  0  0  0  0
    7.5210    5.4876    0.0000 H   0  0  0  0  0  0  0  0  0  0  0  0
    7.1225    4.7973    0.0000 H   0  0  0  0  0  0  0  0  0  0  0  0
    7.0791    1.8224    0.0000 H   0  0  0  0  0  0  0  0  0  0  0  0
    7.4776    2.5127    0.0000 H   0  0  0  0  0  0  0  0  0  0  0  0
    8.9091    4.8681    0.0000 H   0  0  0  0  0  0  0  0  0  0  0  0
    9.1360    5.7150    0.0000 H   0  0  0  0  0  0  0  0  0  0  0  0
    8.2891    5.9419    0.0000 H   0  0  0  0  0  0  0  0  0  0  0  0
    6.5380    0.5950    0.0000 H   0  0  0  0  0  0  0  0  0  0  0  0
    5.6720   -0.9050    0.0000 H   0  0  0  0  0  0  0  0  0  0  0  0
    3.7320   -0.7850    0.0000 H   0  0  0  0  0  0  0  0  0  0  0  0
    2.8660   -2.2850    0.0000 H   0  0  0  0  0  0  0  0  0  0  0  0
    5.6720   -2.2850    0.0000 H   0  0  0  0  0  0  0  0  0  0  0  0
    5.6720   -3.9050    0.0000 H   0  0  0  0  0  0  0  0  0  0  0  0
    4.2690    1.5250    0.0000 H   0  0  0  0  0  0  0  0  0  0  0  0
    2.0000   -3.7850    0.0000 H   0  0  0  0  0  0  0  0  0  0  0  0
    4.8059   -5.4050    0.0000 H   0  0  0  0  0  0  0  0  0  0  0  0
  1 10  2  0  0  0  0 
  2 12  1  0  0  0  0 
  2 38  1  0  0  0  0 
  3 18  1  0  0  0  0 
  3 39  1  0  0  0  0 
  4 19  1  0  0  0  0 
  4 40  1  0  0  0  0 
  5  6  1  0  0  0  0 
  5  7  1  0  0  0  0 
  5 21  1  0  0  0  0 
  5 22  1  0  0  0  0 
  6  8  1  0  0  0  0 
  6 23  1  0  0  0  0 
  6 24  1  0  0  0  0 
  7  9  1  0  0  0  0 
  7 25  1  0  0  0  0 
  7 26  1  0  0  0  0 
  8 10  1  0  0  0  0 
  8 27  1  0  0  0  0 
  8 28  1  0  0  0  0 
  9 29  1  0  0  0  0 
  9 30  1  0  0  0  0 
  9 31  1  0  0  0  0 
 10 11  1  0  0  0  0 
 11 12  2  0  0  0  0 
 11 32  1  0  0  0  0 
 12 14  1  0  0  0  0 
 13 15  1  0  0  0  0 
 13 16  2  0  0  0  0 
 13 17  1  0  0  0  0 
 14 15  2  0  0  0  0 
 14 33  1  0  0  0  0 
 15 34  1  0  0  0  0 
 16 18  1  0  0  0  0 
 16 35  1  0  0  0  0 
 17 20  2  0  0  0  0 
 17 36  1  0  0  0  0 
 18 19  2  0  0  0  0 
 19 20  1  0  0  0  0 
 20 37  1  0  0  0  0 
M  END
> <cdk:Title>
46173988

> <cdk:Remark>
null

> <PUBCHEM_COMPOUND_CID>
46173988

> <PUBCHEM_COMPOUND_CANONICALIZED>
1

> <PUBCHEM_CACTVS_COMPLEXITY>
360

> <PUBCHEM_CACTVS_HBOND_ACCEPTOR>
4

> <PUBCHEM_CACTVS_HBOND_DONOR>
3

> <PUBCHEM_CACTVS_ROTATABLE_BOND>
7

> <PUBCHEM_CACTVS_SUBSKEYS>
AAADceB4OAAAAAAAAAAAAAAAAAAAAAAAAAAwAAAAAAAAAAABAAAAGgAACAAADASAmAAyBoAAAgCIAqBSAAACAAAgIAAIiAEGiMgJJjKCERKAcAEkwBEJmQeIyBAOIAABAAAAQABAAAIAAACAAAAAAAAAAA==

> <PUBCHEM_IUPAC_OPENEYE_NAME>
(1E,3Z)-1-(3,4-dihydroxyphenyl)-3-hydroxy-deca-1,3-dien-5-one

> <PUBCHEM_IUPAC_CAS_NAME>
(1E,3Z)-1-(3,4-dihydroxyphenyl)-3-hydroxy-5-deca-1,3-dienone

> <PUBCHEM_IUPAC_NAME>
(1E,3Z)-1-(3,4-dihydroxyphenyl)-3-hydroxydeca-1,3-dien-5-one

> <PUBCHEM_IUPAC_SYSTEMATIC_NAME>
(1E,3Z)-1-[3,4-bis(oxidanyl)phenyl]-3-oxidanyl-deca-1,3-dien-5-one

> <PUBCHEM_IUPAC_TRADITIONAL_NAME>
(1E,3Z)-1-(3,4-dihydroxyphenyl)-3-hydroxy-deca-1,3-dien-5-one

> <PUBCHEM_IUPAC_INCHI>
InChI=1S/C16H20O4/c1-2-3-4-5-13(17)11-14(18)8-6-12-7-9-15(19)16(20)10-12/h6-11,18-20H,2-5H2,1H3/b8-6+,14-11-

> <PUBCHEM_IUPAC_INCHIKEY>
NTKDMBBQTDNBSR-SQKGQWCESA-N

> <PUBCHEM_XLOGP3_AA>
3.9

> <PUBCHEM_EXACT_MASS>
276.136159

> <PUBCHEM_MOLECULAR_FORMULA>
C16H20O4

> <PUBCHEM_MOLECULAR_WEIGHT>
276.3276

> <PUBCHEM_OPENEYE_CAN_SMILES>
CCCCCC(=O)C=C(C=CC1=CC(=C(C=C1)O)O)O

> <PUBCHEM_OPENEYE_ISO_SMILES>
CCCCCC(=O)/C=C(/C=C/C1=CC(=C(C=C1)O)O)\O

> <PUBCHEM_CACTVS_TPSA>
77.8

> <PUBCHEM_MONOISOTOPIC_WEIGHT>
276.136159

> <PUBCHEM_TOTAL_CHARGE>
0

> <PUBCHEM_HEAVY_ATOM_COUNT>
20

> <PUBCHEM_ATOM_DEF_STEREO_COUNT>
0

> <PUBCHEM_ATOM_UDEF_STEREO_COUNT>
0

> <PUBCHEM_BOND_DEF_STEREO_COUNT>
2

> <PUBCHEM_BOND_UDEF_STEREO_COUNT>
0

> <PUBCHEM_ISOTOPIC_ATOM_COUNT>
0

> <PUBCHEM_COMPONENT_COUNT>
1

> <PUBCHEM_CACTVS_TAUTO_COUNT>
74

> <PUBCHEM_COORDINATE_TYPE>
1

> <PUBCHEM_BONDANNOTATIONS>
13  16  8

$$$$
