54870866
  CDK     1220141107

 40 40  0  0  0  0  0  0  0  0999 V2000
    5.1350   -0.7500    0.0000 O   0  0  0  0  0  0  0  0  0  0  0  0
    6.0010    2.7500    0.0000 O   0  0  0  0  0  0  0  0  0  0  0  0
    4.2690    0.7500    0.0000 N   0  0  0  0  0  0  0  0  0  0  0  0
    2.5369   -0.2500    0.0000 N   0  0  0  0  0  0  0  0  0  0  0  0
    3.4030    1.2500    0.0000 C   0  0  0  0  0  0  0  0  0  0  0  0
    3.4030    2.2500    0.0000 C   0  0  0  0  0  0  0  0  0  0  0  0
    5.1350    1.2500    0.0000 C   0  0  0  0  0  0  0  0  0  0  0  0
    3.4030   -0.7500    0.0000 C   0  0  3  0  0  0  0  0  0  0  0  0
    4.2690   -0.2500    0.0000 C   0  0  0  0  0  0  0  0  0  0  0  0
    2.5369    2.7500    0.0000 C   0  0  0  0  0  0  0  0  0  0  0  0
    3.4030   -1.7500    0.0000 C   0  0  0  0  0  0  0  0  0  0  0  0
    5.1350    2.2500    0.0000 C   0  0  0  0  0  0  0  0  0  0  0  0
    2.5369    3.7500    0.0000 C   0  0  0  0  0  0  0  0  0  0  0  0
    4.2690   -2.2500    0.0000 C   0  0  0  0  0  0  0  0  0  0  0  0
    2.5369   -2.2500    0.0000 C   0  0  0  0  0  0  0  0  0  0  0  0
    4.2690   -3.2500    0.0000 C   0  0  0  0  0  0  0  0  0  0  0  0
    2.5369   -3.2500    0.0000 C   0  0  0  0  0  0  0  0  0  0  0  0
    3.4030   -3.7500    0.0000 C   0  0  0  0  0  0  0  0  0  0  0  0
    2.7924    1.3577    0.0000 H   0  0  0  0  0  0  0  0  0  0  0  0
    3.1909    0.6674    0.0000 H   0  0  0  0  0  0  0  0  0  0  0  0
    4.0135    2.1423    0.0000 H   0  0  0  0  0  0  0  0  0  0  0  0
    3.6150    2.8326    0.0000 H   0  0  0  0  0  0  0  0  0  0  0  0
    5.3471    0.6674    0.0000 H   0  0  0  0  0  0  0  0  0  0  0  0
    5.7456    1.3577    0.0000 H   0  0  0  0  0  0  0  0  0  0  0  0
    3.4030   -0.1300    0.0000 H   0  0  0  0  0  0  0  0  0  0  0  0
    1.9264    2.8577    0.0000 H   0  0  0  0  0  0  0  0  0  0  0  0
    2.3249    2.1674    0.0000 H   0  0  0  0  0  0  0  0  0  0  0  0
    4.9230    2.8326    0.0000 H   0  0  0  0  0  0  0  0  0  0  0  0
    4.5244    2.1423    0.0000 H   0  0  0  0  0  0  0  0  0  0  0  0
    3.1569    3.7500    0.0000 H   0  0  0  0  0  0  0  0  0  0  0  0
    2.5369    4.3700    0.0000 H   0  0  0  0  0  0  0  0  0  0  0  0
    1.9169    3.7500    0.0000 H   0  0  0  0  0  0  0  0  0  0  0  0
    2.5369    0.3700    0.0000 H   0  0  0  0  0  0  0  0  0  0  0  0
    2.0000   -0.5600    0.0000 H   0  0  0  0  0  0  0  0  0  0  0  0
    4.8059   -1.9400    0.0000 H   0  0  0  0  0  0  0  0  0  0  0  0
    2.0000   -1.9400    0.0000 H   0  0  0  0  0  0  0  0  0  0  0  0
    4.8059   -3.5600    0.0000 H   0  0  0  0  0  0  0  0  0  0  0  0
    2.0000   -3.5600    0.0000 H   0  0  0  0  0  0  0  0  0  0  0  0
    3.4030   -4.3700    0.0000 H   0  0  0  0  0  0  0  0  0  0  0  0
    6.0010    3.3700    0.0000 H   0  0  0  0  0  0  0  0  0  0  0  0
  1  9  2  0  0  0  0 
  2 12  1  0  0  0  0 
  2 40  1  0  0  0  0 
  3  5  1  0  0  0  0 
  3  7  1  0  0  0  0 
  3  9  1  0  0  0  0 
  4  8  1  0  0  0  0 
  4 33  1  0  0  0  0 
  4 34  1  0  0  0  0 
  5  6  1  0  0  0  0 
  5 19  1  0  0  0  0 
  5 20  1  0  0  0  0 
  6 10  1  0  0  0  0 
  6 21  1  0  0  0  0 
  6 22  1  0  0  0  0 
  7 12  1  0  0  0  0 
  7 23  1  0  0  0  0 
  7 24  1  0  0  0  0 
  8  9  1  0  0  0  0 
  8 11  1  0  0  0  0 
  8 25  1  0  0  0  0 
 10 13  1  0  0  0  0 
 10 26  1  0  0  0  0 
 10 27  1  0  0  0  0 
 11 14  2  0  0  0  0 
 11 15  1  0  0  0  0 
 12 28  1  0  0  0  0 
 12 29  1  0  0  0  0 
 13 30  1  0  0  0  0 
 13 31  1  0  0  0  0 
 13 32  1  0  0  0  0 
 14 16  1  0  0  0  0 
 14 35  1  0  0  0  0 
 15 17  2  0  0  0  0 
 15 36  1  0  0  0  0 
 16 18  2  0  0  0  0 
 16 37  1  0  0  0  0 
 17 18  1  0  0  0  0 
 17 38  1  0  0  0  0 
 18 39  1  0  0  0  0 
M  END
> <cdk:Title>
54870866

> <cdk:Remark>
null

> <PUBCHEM_COMPOUND_CID>
54870866

> <PUBCHEM_COMPOUND_CANONICALIZED>
1

> <PUBCHEM_CACTVS_COMPLEXITY>
240

> <PUBCHEM_CACTVS_HBOND_ACCEPTOR>
3

> <PUBCHEM_CACTVS_HBOND_DONOR>
2

> <PUBCHEM_CACTVS_ROTATABLE_BOND>
7

> <PUBCHEM_CACTVS_SUBSKEYS>
AAADceBzMAAAAAAAAAAAAAAAAAAAAAAAAAAwAAAAAAAAAAABAAAAHgAQCAAADCjhmAYyAINAAgCIAiFSEACCAAAgAAAIiIGIBIgKcDKAlRGUIABghgCYiAcYiICOAAAAAAAAAAAAAAAAAAAAAAAAAAAAAA==

> <PUBCHEM_IUPAC_OPENEYE_NAME>
2-amino-N-butyl-N-(2-hydroxyethyl)-2-phenyl-acetamide

> <PUBCHEM_IUPAC_CAS_NAME>
2-amino-N-butyl-N-(2-hydroxyethyl)-2-phenylacetamide

> <PUBCHEM_IUPAC_NAME>
2-amino-N-butyl-N-(2-hydroxyethyl)-2-phenylacetamide

> <PUBCHEM_IUPAC_SYSTEMATIC_NAME>
2-azanyl-N-butyl-N-(2-hydroxyethyl)-2-phenyl-ethanamide

> <PUBCHEM_IUPAC_TRADITIONAL_NAME>
2-amino-N-butyl-N-(2-hydroxyethyl)-2-phenyl-acetamide

> <PUBCHEM_IUPAC_INCHI>
InChI=1S/C14H22N2O2/c1-2-3-9-16(10-11-17)14(18)13(15)12-7-5-4-6-8-12/h4-8,13,17H,2-3,9-11,15H2,1H3

> <PUBCHEM_IUPAC_INCHIKEY>
KAGIDOVNWHWSRL-UHFFFAOYSA-N

> <PUBCHEM_XLOGP3_AA>
1.1

> <PUBCHEM_EXACT_MASS>
250.168128

> <PUBCHEM_MOLECULAR_FORMULA>
C14H22N2O2

> <PUBCHEM_MOLECULAR_WEIGHT>
250.33668

> <PUBCHEM_OPENEYE_CAN_SMILES>
CCCCN(CCO)C(=O)C(C1=CC=CC=C1)N

> <PUBCHEM_OPENEYE_ISO_SMILES>
CCCCN(CCO)C(=O)C(C1=CC=CC=C1)N

> <PUBCHEM_CACTVS_TPSA>
66.6

> <PUBCHEM_MONOISOTOPIC_WEIGHT>
250.168128

> <PUBCHEM_TOTAL_CHARGE>
0

> <PUBCHEM_HEAVY_ATOM_COUNT>
18

> <PUBCHEM_ATOM_DEF_STEREO_COUNT>
0

> <PUBCHEM_ATOM_UDEF_STEREO_COUNT>
1

> <PUBCHEM_BOND_DEF_STEREO_COUNT>
0

> <PUBCHEM_BOND_UDEF_STEREO_COUNT>
0

> <PUBCHEM_ISOTOPIC_ATOM_COUNT>
0

> <PUBCHEM_COMPONENT_COUNT>
1

> <PUBCHEM_CACTVS_TAUTO_COUNT>
1

> <PUBCHEM_COORDINATE_TYPE>
1

> <PUBCHEM_BONDANNOTATIONS>
11  14  8

$$$$
54870866
  CDK     1220141108

 40 40  0  0  0  0  0  0  0  0999 V2000
    5.1350   -0.7500    0.0000 O   0  0  0  0  0  0  0  0  0  0  0  0
    6.0010    2.7500    0.0000 O   0  0  0  0  0  0  0  0  0  0  0  0
    4.2690    0.7500    0.0000 N   0  0  0  0  0  0  0  0  0  0  0  0
    2.5369   -0.2500    0.0000 N   0  0  0  0  0  0  0  0  0  0  0  0
    3.4030    1.2500    0.0000 C   0  0  0  0  0  0  0  0  0  0  0  0
    3.4030    2.2500    0.0000 C   0  0  0  0  0  0  0  0  0  0  0  0
    5.1350    1.2500    0.0000 C   0  0  0  0  0  0  0  0  0  0  0  0
    3.4030   -0.7500    0.0000 C   0  0  3  0  0  0  0  0  0  0  0  0
    4.2690   -0.2500    0.0000 C   0  0  0  0  0  0  0  0  0  0  0  0
    2.5369    2.7500    0.0000 C   0  0  0  0  0  0  0  0  0  0  0  0
    3.4030   -1.7500    0.0000 C   0  0  0  0  0  0  0  0  0  0  0  0
    5.1350    2.2500    0.0000 C   0  0  0  0  0  0  0  0  0  0  0  0
    2.5369    3.7500    0.0000 C   0  0  0  0  0  0  0  0  0  0  0  0
    4.2690   -2.2500    0.0000 C   0  0  0  0  0  0  0  0  0  0  0  0
    2.5369   -2.2500    0.0000 C   0  0  0  0  0  0  0  0  0  0  0  0
    4.2690   -3.2500    0.0000 C   0  0  0  0  0  0  0  0  0  0  0  0
    2.5369   -3.2500    0.0000 C   0  0  0  0  0  0  0  0  0  0  0  0
    3.4030   -3.7500    0.0000 C   0  0  0  0  0  0  0  0  0  0  0  0
    2.7924    1.3577    0.0000 H   0  0  0  0  0  0  0  0  0  0  0  0
    3.1909    0.6674    0.0000 H   0  0  0  0  0  0  0  0  0  0  0  0
    4.0135    2.1423    0.0000 H   0  0  0  0  0  0  0  0  0  0  0  0
    3.6150    2.8326    0.0000 H   0  0  0  0  0  0  0  0  0  0  0  0
    5.3471    0.6674    0.0000 H   0  0  0  0  0  0  0  0  0  0  0  0
    5.7456    1.3577    0.0000 H   0  0  0  0  0  0  0  0  0  0  0  0
    3.4030   -0.1300    0.0000 H   0  0  0  0  0  0  0  0  0  0  0  0
    1.9264    2.8577    0.0000 H   0  0  0  0  0  0  0  0  0  0  0  0
    2.3249    2.1674    0.0000 H   0  0  0  0  0  0  0  0  0  0  0  0
    4.9230    2.8326    0.0000 H   0  0  0  0  0  0  0  0  0  0  0  0
    4.5244    2.1423    0.0000 H   0  0  0  0  0  0  0  0  0  0  0  0
    3.1569    3.7500    0.0000 H   0  0  0  0  0  0  0  0  0  0  0  0
    2.5369    4.3700    0.0000 H   0  0  0  0  0  0  0  0  0  0  0  0
    1.9169    3.7500    0.0000 H   0  0  0  0  0  0  0  0  0  0  0  0
    2.5369    0.3700    0.0000 H   0  0  0  0  0  0  0  0  0  0  0  0
    2.0000   -0.5600    0.0000 H   0  0  0  0  0  0  0  0  0  0  0  0
    4.8059   -1.9400    0.0000 H   0  0  0  0  0  0  0  0  0  0  0  0
    2.0000   -1.9400    0.0000 H   0  0  0  0  0  0  0  0  0  0  0  0
    4.8059   -3.5600    0.0000 H   0  0  0  0  0  0  0  0  0  0  0  0
    2.0000   -3.5600    0.0000 H   0  0  0  0  0  0  0  0  0  0  0  0
    3.4030   -4.3700    0.0000 H   0  0  0  0  0  0  0  0  0  0  0  0
    6.0010    3.3700    0.0000 H   0  0  0  0  0  0  0  0  0  0  0  0
  1  9  2  0  0  0  0 
  2 12  1  0  0  0  0 
  2 40  1  0  0  0  0 
  3  5  1  0  0  0  0 
  3  7  1  0  0  0  0 
  3  9  1  0  0  0  0 
  4  8  1  0  0  0  0 
  4 33  1  0  0  0  0 
  4 34  1  0  0  0  0 
  5  6  1  0  0  0  0 
  5 19  1  0  0  0  0 
  5 20  1  0  0  0  0 
  6 10  1  0  0  0  0 
  6 21  1  0  0  0  0 
  6 22  1  0  0  0  0 
  7 12  1  0  0  0  0 
  7 23  1  0  0  0  0 
  7 24  1  0  0  0  0 
  8  9  1  0  0  0  0 
  8 11  1  0  0  0  0 
  8 25  1  0  0  0  0 
 10 13  1  0  0  0  0 
 10 26  1  0  0  0  0 
 10 27  1  0  0  0  0 
 11 14  2  0  0  0  0 
 11 15  1  0  0  0  0 
 12 28  1  0  0  0  0 
 12 29  1  0  0  0  0 
 13 30  1  0  0  0  0 
 13 31  1  0  0  0  0 
 13 32  1  0  0  0  0 
 14 16  1  0  0  0  0 
 14 35  1  0  0  0  0 
 15 17  2  0  0  0  0 
 15 36  1  0  0  0  0 
 16 18  2  0  0  0  0 
 16 37  1  0  0  0  0 
 17 18  1  0  0  0  0 
 17 38  1  0  0  0  0 
 18 39  1  0  0  0  0 
M  END
> <cdk:Title>
54870866

> <cdk:Remark>
null

> <PUBCHEM_COMPOUND_CID>
54870866

> <PUBCHEM_COMPOUND_CANONICALIZED>
1

> <PUBCHEM_CACTVS_COMPLEXITY>
240

> <PUBCHEM_CACTVS_HBOND_ACCEPTOR>
3

> <PUBCHEM_CACTVS_HBOND_DONOR>
2

> <PUBCHEM_CACTVS_ROTATABLE_BOND>
7

> <PUBCHEM_CACTVS_SUBSKEYS>
AAADceBzMAAAAAAAAAAAAAAAAAAAAAAAAAAwAAAAAAAAAAABAAAAHgAQCAAADCjhmAYyAINAAgCIAiFSEACCAAAgAAAIiIGIBIgKcDKAlRGUIABghgCYiAcYiICOAAAAAAAAAAAAAAAAAAAAAAAAAAAAAA==

> <PUBCHEM_IUPAC_OPENEYE_NAME>
2-amino-N-butyl-N-(2-hydroxyethyl)-2-phenyl-acetamide

> <PUBCHEM_IUPAC_CAS_NAME>
2-amino-N-butyl-N-(2-hydroxyethyl)-2-phenylacetamide

> <PUBCHEM_IUPAC_NAME>
2-amino-N-butyl-N-(2-hydroxyethyl)-2-phenylacetamide

> <PUBCHEM_IUPAC_SYSTEMATIC_NAME>
2-azanyl-N-butyl-N-(2-hydroxyethyl)-2-phenyl-ethanamide

> <PUBCHEM_IUPAC_TRADITIONAL_NAME>
2-amino-N-butyl-N-(2-hydroxyethyl)-2-phenyl-acetamide

> <PUBCHEM_IUPAC_INCHI>
InChI=1S/C14H22N2O2/c1-2-3-9-16(10-11-17)14(18)13(15)12-7-5-4-6-8-12/h4-8,13,17H,2-3,9-11,15H2,1H3

> <PUBCHEM_IUPAC_INCHIKEY>
KAGIDOVNWHWSRL-UHFFFAOYSA-N

> <PUBCHEM_XLOGP3_AA>
1.1

> <PUBCHEM_EXACT_MASS>
250.168128

> <PUBCHEM_MOLECULAR_FORMULA>
C14H22N2O2

> <PUBCHEM_MOLECULAR_WEIGHT>
250.33668

> <PUBCHEM_OPENEYE_CAN_SMILES>
CCCCN(CCO)C(=O)C(C1=CC=CC=C1)N

> <PUBCHEM_OPENEYE_ISO_SMILES>
CCCCN(CCO)C(=O)C(C1=CC=CC=C1)N

> <PUBCHEM_CACTVS_TPSA>
66.6

> <PUBCHEM_MONOISOTOPIC_WEIGHT>
250.168128

> <PUBCHEM_TOTAL_CHARGE>
0

> <PUBCHEM_HEAVY_ATOM_COUNT>
18

> <PUBCHEM_ATOM_DEF_STEREO_COUNT>
0

> <PUBCHEM_ATOM_UDEF_STEREO_COUNT>
1

> <PUBCHEM_BOND_DEF_STEREO_COUNT>
0

> <PUBCHEM_BOND_UDEF_STEREO_COUNT>
0

> <PUBCHEM_ISOTOPIC_ATOM_COUNT>
0

> <PUBCHEM_COMPONENT_COUNT>
1

> <PUBCHEM_CACTVS_TAUTO_COUNT>
1

> <PUBCHEM_COORDINATE_TYPE>
1

> <PUBCHEM_BONDANNOTATIONS>
11  14  8

$$$$
