60998295
  CDK     1220141107

 43 44  0  0  0  0  0  0  0  0999 V2000
    6.0981   -0.2110    0.0000 O   0  0  0  0  0  0  0  0  0  0  0  0
    6.0981    1.5210    0.0000 O   0  0  0  0  0  0  0  0  0  0  0  0
    4.5981   -3.3450    0.0000 O   0  0  0  0  0  0  0  0  0  0  0  0
    4.5981    1.6550    0.0000 N   0  0  0  0  0  0  0  0  0  0  0  0
    3.7320    2.1550    0.0000 C   0  0  0  0  0  0  0  0  0  0  0  0
    2.8660    1.6550    0.0000 C   0  0  0  0  0  0  0  0  0  0  0  0
    3.7320    3.1550    0.0000 C   0  0  0  0  0  0  0  0  0  0  0  0
    2.0000    2.1550    0.0000 C   0  0  0  0  0  0  0  0  0  0  0  0
    2.8660    3.6550    0.0000 C   0  0  0  0  0  0  0  0  0  0  0  0
    2.0000    3.1550    0.0000 C   0  0  0  0  0  0  0  0  0  0  0  0
    4.5981    0.6550    0.0000 C   0  0  3  0  0  0  0  0  0  0  0  0
    4.5981   -0.3450    0.0000 C   0  0  0  0  0  0  0  0  0  0  0  0
    3.5981    0.6550    0.0000 C   0  0  0  0  0  0  0  0  0  0  0  0
    5.5981    0.6550    0.0000 C   0  0  0  0  0  0  0  0  0  0  0  0
    5.4641   -0.8450    0.0000 C   0  0  0  0  0  0  0  0  0  0  0  0
    3.7320   -0.8450    0.0000 C   0  0  0  0  0  0  0  0  0  0  0  0
    5.4641   -1.8450    0.0000 C   0  0  0  0  0  0  0  0  0  0  0  0
    3.7320   -1.8450    0.0000 C   0  0  0  0  0  0  0  0  0  0  0  0
    4.5981   -2.3450    0.0000 C   0  0  0  0  0  0  0  0  0  0  0  0
    7.0981   -0.2110    0.0000 C   0  0  0  0  0  0  0  0  0  0  0  0
    3.7320    1.5350    0.0000 H   0  0  0  0  0  0  0  0  0  0  0  0
    2.4675    1.1800    0.0000 H   0  0  0  0  0  0  0  0  0  0  0  0
    3.2646    1.1800    0.0000 H   0  0  0  0  0  0  0  0  0  0  0  0
    4.3426    3.0473    0.0000 H   0  0  0  0  0  0  0  0  0  0  0  0
    3.9441    3.7376    0.0000 H   0  0  0  0  0  0  0  0  0  0  0  0
    1.3894    2.2627    0.0000 H   0  0  0  0  0  0  0  0  0  0  0  0
    1.7880    1.5724    0.0000 H   0  0  0  0  0  0  0  0  0  0  0  0
    3.2646    4.1300    0.0000 H   0  0  0  0  0  0  0  0  0  0  0  0
    2.4675    4.1300    0.0000 H   0  0  0  0  0  0  0  0  0  0  0  0
    1.7880    3.7376    0.0000 H   0  0  0  0  0  0  0  0  0  0  0  0
    1.3894    3.0473    0.0000 H   0  0  0  0  0  0  0  0  0  0  0  0
    5.1350    1.9650    0.0000 H   0  0  0  0  0  0  0  0  0  0  0  0
    3.5981    1.2750    0.0000 H   0  0  0  0  0  0  0  0  0  0  0  0
    2.9781    0.6550    0.0000 H   0  0  0  0  0  0  0  0  0  0  0  0
    3.5981    0.0350    0.0000 H   0  0  0  0  0  0  0  0  0  0  0  0
    6.0010   -0.5350    0.0000 H   0  0  0  0  0  0  0  0  0  0  0  0
    3.1951   -0.5350    0.0000 H   0  0  0  0  0  0  0  0  0  0  0  0
    6.0010   -2.1550    0.0000 H   0  0  0  0  0  0  0  0  0  0  0  0
    3.1951   -2.1550    0.0000 H   0  0  0  0  0  0  0  0  0  0  0  0
    7.0981   -0.8310    0.0000 H   0  0  0  0  0  0  0  0  0  0  0  0
    7.7181   -0.2110    0.0000 H   0  0  0  0  0  0  0  0  0  0  0  0
    7.0981    0.4090    0.0000 H   0  0  0  0  0  0  0  0  0  0  0  0
    4.0611   -3.6550    0.0000 H   0  0  0  0  0  0  0  0  0  0  0  0
  1 14  1  0  0  0  0 
  1 20  1  0  0  0  0 
  2 14  2  0  0  0  0 
  3 19  1  0  0  0  0 
  3 43  1  0  0  0  0 
  4  5  1  0  0  0  0 
  4 11  1  0  0  0  0 
  4 32  1  0  0  0  0 
  5  6  1  0  0  0  0 
  5  7  1  0  0  0  0 
  5 21  1  0  0  0  0 
  6  8  1  0  0  0  0 
  6 22  1  0  0  0  0 
  6 23  1  0  0  0  0 
  7  9  1  0  0  0  0 
  7 24  1  0  0  0  0 
  7 25  1  0  0  0  0 
  8 10  1  0  0  0  0 
  8 26  1  0  0  0  0 
  8 27  1  0  0  0  0 
  9 10  1  0  0  0  0 
  9 28  1  0  0  0  0 
  9 29  1  0  0  0  0 
 10 30  1  0  0  0  0 
 10 31  1  0  0  0  0 
 11 12  1  0  0  0  0 
 11 13  1  0  0  0  0 
 11 14  1  0  0  0  0 
 12 15  2  0  0  0  0 
 12 16  1  0  0  0  0 
 13 33  1  0  0  0  0 
 13 34  1  0  0  0  0 
 13 35  1  0  0  0  0 
 15 17  1  0  0  0  0 
 15 36  1  0  0  0  0 
 16 18  2  0  0  0  0 
 16 37  1  0  0  0  0 
 17 19  2  0  0  0  0 
 17 38  1  0  0  0  0 
 18 19  1  0  0  0  0 
 18 39  1  0  0  0  0 
 20 40  1  0  0  0  0 
 20 41  1  0  0  0  0 
 20 42  1  0  0  0  0 
M  END
> <cdk:Title>
60998295

> <cdk:Remark>
null

> <PUBCHEM_COMPOUND_CID>
60998295

> <PUBCHEM_COMPOUND_CANONICALIZED>
1

> <PUBCHEM_CACTVS_COMPLEXITY>
320

> <PUBCHEM_CACTVS_HBOND_ACCEPTOR>
4

> <PUBCHEM_CACTVS_HBOND_DONOR>
2

> <PUBCHEM_CACTVS_ROTATABLE_BOND>
5

> <PUBCHEM_CACTVS_SUBSKEYS>
AAADceB6MAAAAAAAAAAAAAAAAAAAAAAAAAAwYAAAAAAAAAABAAAAHgAQCAAADKzBmAYyDoLABgCIAiDSCACCAAAgIAAIiIGODIgKJjKClTOFcAhk0BGYmAeY2POOoAAAAAAAAABAAAAAAAAAAAAAAAAAAA==

> <PUBCHEM_IUPAC_OPENEYE_NAME>
methyl 2-(cyclohexylamino)-2-(4-hydroxyphenyl)propanoate

> <PUBCHEM_IUPAC_CAS_NAME>
2-(cyclohexylamino)-2-(4-hydroxyphenyl)propanoic acid methyl ester

> <PUBCHEM_IUPAC_NAME>
methyl 2-(cyclohexylamino)-2-(4-hydroxyphenyl)propanoate

> <PUBCHEM_IUPAC_SYSTEMATIC_NAME>
methyl 2-(cyclohexylamino)-2-(4-hydroxyphenyl)propanoate

> <PUBCHEM_IUPAC_TRADITIONAL_NAME>
2-(cyclohexylamino)-2-(4-hydroxyphenyl)propionic acid methyl ester

> <PUBCHEM_IUPAC_INCHI>
InChI=1S/C16H23NO3/c1-16(15(19)20-2,12-8-10-14(18)11-9-12)17-13-6-4-3-5-7-13/h8-11,13,17-18H,3-7H2,1-2H3

> <PUBCHEM_IUPAC_INCHIKEY>
PSCGHWLMINYIKT-UHFFFAOYSA-N

> <PUBCHEM_XLOGP3_AA>
3.1

> <PUBCHEM_EXACT_MASS>
277.167794

> <PUBCHEM_MOLECULAR_FORMULA>
C16H23NO3

> <PUBCHEM_MOLECULAR_WEIGHT>
277.35872

> <PUBCHEM_OPENEYE_CAN_SMILES>
CC(C1=CC=C(C=C1)O)(C(=O)OC)NC2CCCCC2

> <PUBCHEM_OPENEYE_ISO_SMILES>
CC(C1=CC=C(C=C1)O)(C(=O)OC)NC2CCCCC2

> <PUBCHEM_CACTVS_TPSA>
58.6

> <PUBCHEM_MONOISOTOPIC_WEIGHT>
277.167794

> <PUBCHEM_TOTAL_CHARGE>
0

> <PUBCHEM_HEAVY_ATOM_COUNT>
20

> <PUBCHEM_ATOM_DEF_STEREO_COUNT>
0

> <PUBCHEM_ATOM_UDEF_STEREO_COUNT>
1

> <PUBCHEM_BOND_DEF_STEREO_COUNT>
0

> <PUBCHEM_BOND_UDEF_STEREO_COUNT>
0

> <PUBCHEM_ISOTOPIC_ATOM_COUNT>
0

> <PUBCHEM_COMPONENT_COUNT>
1

> <PUBCHEM_CACTVS_TAUTO_COUNT>
2

> <PUBCHEM_COORDINATE_TYPE>
1

> <PUBCHEM_BONDANNOTATIONS>
11  13  3

$$$$
60998295
  CDK     1220141108

 43 44  0  0  0  0  0  0  0  0999 V2000
    6.0981   -0.2110    0.0000 O   0  0  0  0  0  0  0  0  0  0  0  0
    6.0981    1.5210    0.0000 O   0  0  0  0  0  0  0  0  0  0  0  0
    4.5981   -3.3450    0.0000 O   0  0  0  0  0  0  0  0  0  0  0  0
    4.5981    1.6550    0.0000 N   0  0  0  0  0  0  0  0  0  0  0  0
    3.7320    2.1550    0.0000 C   0  0  0  0  0  0  0  0  0  0  0  0
    2.8660    1.6550    0.0000 C   0  0  0  0  0  0  0  0  0  0  0  0
    3.7320    3.1550    0.0000 C   0  0  0  0  0  0  0  0  0  0  0  0
    2.0000    2.1550    0.0000 C   0  0  0  0  0  0  0  0  0  0  0  0
    2.8660    3.6550    0.0000 C   0  0  0  0  0  0  0  0  0  0  0  0
    2.0000    3.1550    0.0000 C   0  0  0  0  0  0  0  0  0  0  0  0
    4.5981    0.6550    0.0000 C   0  0  3  0  0  0  0  0  0  0  0  0
    4.5981   -0.3450    0.0000 C   0  0  0  0  0  0  0  0  0  0  0  0
    3.5981    0.6550    0.0000 C   0  0  0  0  0  0  0  0  0  0  0  0
    5.5981    0.6550    0.0000 C   0  0  0  0  0  0  0  0  0  0  0  0
    5.4641   -0.8450    0.0000 C   0  0  0  0  0  0  0  0  0  0  0  0
    3.7320   -0.8450    0.0000 C   0  0  0  0  0  0  0  0  0  0  0  0
    5.4641   -1.8450    0.0000 C   0  0  0  0  0  0  0  0  0  0  0  0
    3.7320   -1.8450    0.0000 C   0  0  0  0  0  0  0  0  0  0  0  0
    4.5981   -2.3450    0.0000 C   0  0  0  0  0  0  0  0  0  0  0  0
    7.0981   -0.2110    0.0000 C   0  0  0  0  0  0  0  0  0  0  0  0
    3.7320    1.5350    0.0000 H   0  0  0  0  0  0  0  0  0  0  0  0
    2.4675    1.1800    0.0000 H   0  0  0  0  0  0  0  0  0  0  0  0
    3.2646    1.1800    0.0000 H   0  0  0  0  0  0  0  0  0  0  0  0
    4.3426    3.0473    0.0000 H   0  0  0  0  0  0  0  0  0  0  0  0
    3.9441    3.7376    0.0000 H   0  0  0  0  0  0  0  0  0  0  0  0
    1.3894    2.2627    0.0000 H   0  0  0  0  0  0  0  0  0  0  0  0
    1.7880    1.5724    0.0000 H   0  0  0  0  0  0  0  0  0  0  0  0
    3.2646    4.1300    0.0000 H   0  0  0  0  0  0  0  0  0  0  0  0
    2.4675    4.1300    0.0000 H   0  0  0  0  0  0  0  0  0  0  0  0
    1.7880    3.7376    0.0000 H   0  0  0  0  0  0  0  0  0  0  0  0
    1.3894    3.0473    0.0000 H   0  0  0  0  0  0  0  0  0  0  0  0
    5.1350    1.9650    0.0000 H   0  0  0  0  0  0  0  0  0  0  0  0
    3.5981    1.2750    0.0000 H   0  0  0  0  0  0  0  0  0  0  0  0
    2.9781    0.6550    0.0000 H   0  0  0  0  0  0  0  0  0  0  0  0
    3.5981    0.0350    0.0000 H   0  0  0  0  0  0  0  0  0  0  0  0
    6.0010   -0.5350    0.0000 H   0  0  0  0  0  0  0  0  0  0  0  0
    3.1951   -0.5350    0.0000 H   0  0  0  0  0  0  0  0  0  0  0  0
    6.0010   -2.1550    0.0000 H   0  0  0  0  0  0  0  0  0  0  0  0
    3.1951   -2.1550    0.0000 H   0  0  0  0  0  0  0  0  0  0  0  0
    7.0981   -0.8310    0.0000 H   0  0  0  0  0  0  0  0  0  0  0  0
    7.7181   -0.2110    0.0000 H   0  0  0  0  0  0  0  0  0  0  0  0
    7.0981    0.4090    0.0000 H   0  0  0  0  0  0  0  0  0  0  0  0
    4.0611   -3.6550    0.0000 H   0  0  0  0  0  0  0  0  0  0  0  0
  1 14  1  0  0  0  0 
  1 20  1  0  0  0  0 
  2 14  2  0  0  0  0 
  3 19  1  0  0  0  0 
  3 43  1  0  0  0  0 
  4  5  1  0  0  0  0 
  4 11  1  0  0  0  0 
  4 32  1  0  0  0  0 
  5  6  1  0  0  0  0 
  5  7  1  0  0  0  0 
  5 21  1  0  0  0  0 
  6  8  1  0  0  0  0 
  6 22  1  0  0  0  0 
  6 23  1  0  0  0  0 
  7  9  1  0  0  0  0 
  7 24  1  0  0  0  0 
  7 25  1  0  0  0  0 
  8 10  1  0  0  0  0 
  8 26  1  0  0  0  0 
  8 27  1  0  0  0  0 
  9 10  1  0  0  0  0 
  9 28  1  0  0  0  0 
  9 29  1  0  0  0  0 
 10 30  1  0  0  0  0 
 10 31  1  0  0  0  0 
 11 12  1  0  0  0  0 
 11 13  1  0  0  0  0 
 11 14  1  0  0  0  0 
 12 15  2  0  0  0  0 
 12 16  1  0  0  0  0 
 13 33  1  0  0  0  0 
 13 34  1  0  0  0  0 
 13 35  1  0  0  0  0 
 15 17  1  0  0  0  0 
 15 36  1  0  0  0  0 
 16 18  2  0  0  0  0 
 16 37  1  0  0  0  0 
 17 19  2  0  0  0  0 
 17 38  1  0  0  0  0 
 18 19  1  0  0  0  0 
 18 39  1  0  0  0  0 
 20 40  1  0  0  0  0 
 20 41  1  0  0  0  0 
 20 42  1  0  0  0  0 
M  END
> <cdk:Title>
60998295

> <cdk:Remark>
null

> <PUBCHEM_COMPOUND_CID>
60998295

> <PUBCHEM_COMPOUND_CANONICALIZED>
1

> <PUBCHEM_CACTVS_COMPLEXITY>
320

> <PUBCHEM_CACTVS_HBOND_ACCEPTOR>
4

> <PUBCHEM_CACTVS_HBOND_DONOR>
2

> <PUBCHEM_CACTVS_ROTATABLE_BOND>
5

> <PUBCHEM_CACTVS_SUBSKEYS>
AAADceB6MAAAAAAAAAAAAAAAAAAAAAAAAAAwYAAAAAAAAAABAAAAHgAQCAAADKzBmAYyDoLABgCIAiDSCACCAAAgIAAIiIGODIgKJjKClTOFcAhk0BGYmAeY2POOoAAAAAAAAABAAAAAAAAAAAAAAAAAAA==

> <PUBCHEM_IUPAC_OPENEYE_NAME>
methyl 2-(cyclohexylamino)-2-(4-hydroxyphenyl)propanoate

> <PUBCHEM_IUPAC_CAS_NAME>
2-(cyclohexylamino)-2-(4-hydroxyphenyl)propanoic acid methyl ester

> <PUBCHEM_IUPAC_NAME>
methyl 2-(cyclohexylamino)-2-(4-hydroxyphenyl)propanoate

> <PUBCHEM_IUPAC_SYSTEMATIC_NAME>
methyl 2-(cyclohexylamino)-2-(4-hydroxyphenyl)propanoate

> <PUBCHEM_IUPAC_TRADITIONAL_NAME>
2-(cyclohexylamino)-2-(4-hydroxyphenyl)propionic acid methyl ester

> <PUBCHEM_IUPAC_INCHI>
InChI=1S/C16H23NO3/c1-16(15(19)20-2,12-8-10-14(18)11-9-12)17-13-6-4-3-5-7-13/h8-11,13,17-18H,3-7H2,1-2H3

> <PUBCHEM_IUPAC_INCHIKEY>
PSCGHWLMINYIKT-UHFFFAOYSA-N

> <PUBCHEM_XLOGP3_AA>
3.1

> <PUBCHEM_EXACT_MASS>
277.167794

> <PUBCHEM_MOLECULAR_FORMULA>
C16H23NO3

> <PUBCHEM_MOLECULAR_WEIGHT>
277.35872

> <PUBCHEM_OPENEYE_CAN_SMILES>
CC(C1=CC=C(C=C1)O)(C(=O)OC)NC2CCCCC2

> <PUBCHEM_OPENEYE_ISO_SMILES>
CC(C1=CC=C(C=C1)O)(C(=O)OC)NC2CCCCC2

> <PUBCHEM_CACTVS_TPSA>
58.6

> <PUBCHEM_MONOISOTOPIC_WEIGHT>
277.167794

> <PUBCHEM_TOTAL_CHARGE>
0

> <PUBCHEM_HEAVY_ATOM_COUNT>
20

> <PUBCHEM_ATOM_DEF_STEREO_COUNT>
0

> <PUBCHEM_ATOM_UDEF_STEREO_COUNT>
1

> <PUBCHEM_BOND_DEF_STEREO_COUNT>
0

> <PUBCHEM_BOND_UDEF_STEREO_COUNT>
0

> <PUBCHEM_ISOTOPIC_ATOM_COUNT>
0

> <PUBCHEM_COMPONENT_COUNT>
1

> <PUBCHEM_CACTVS_TAUTO_COUNT>
2

> <PUBCHEM_COORDINATE_TYPE>
1

> <PUBCHEM_BONDANNOTATIONS>
11  13  3

$$$$
