8079
  -OEChem-09231315042D

 16 16  0     0  0  0  0  0  0999 V2000
    2.8660    1.0000    0.0000 C   0  0  0  0  0  0  0  0  0  0  0  0
    2.0000    0.5000    0.0000 C   0  0  0  0  0  0  0  0  0  0  0  0
    3.7320    0.5000    0.0000 C   0  0  0  0  0  0  0  0  0  0  0  0
    2.0000   -0.5000    0.0000 C   0  0  0  0  0  0  0  0  0  0  0  0
    3.7320   -0.5000    0.0000 C   0  0  0  0  0  0  0  0  0  0  0  0
    2.8660   -1.0000    0.0000 C   0  0  0  0  0  0  0  0  0  0  0  0
    3.2646    1.4750    0.0000 H   0  0  0  0  0  0  0  0  0  0  0  0
    2.4675    1.4750    0.0000 H   0  0  0  0  0  0  0  0  0  0  0  0
    1.7880    1.0826    0.0000 H   0  0  0  0  0  0  0  0  0  0  0  0
    1.3894    0.3923    0.0000 H   0  0  0  0  0  0  0  0  0  0  0  0
    4.3426    0.3923    0.0000 H   0  0  0  0  0  0  0  0  0  0  0  0
    3.9441    1.0826    0.0000 H   0  0  0  0  0  0  0  0  0  0  0  0
    1.3894   -0.3923    0.0000 H   0  0  0  0  0  0  0  0  0  0  0  0
    1.7880   -1.0826    0.0000 H   0  0  0  0  0  0  0  0  0  0  0  0
    4.2690   -0.8100    0.0000 H   0  0  0  0  0  0  0  0  0  0  0  0
    2.8660   -1.6200    0.0000 H   0  0  0  0  0  0  0  0  0  0  0  0
  1  2  1  0  0  0  0
  1  3  1  0  0  0  0
  1  7  1  0  0  0  0
  1  8  1  0  0  0  0
  2  4  1  0  0  0  0
  2  9  1  0  0  0  0
  2 10  1  0  0  0  0
  3  5  1  0  0  0  0
  3 11  1  0  0  0  0
  3 12  1  0  0  0  0
  4  6  1  0  0  0  0
  4 13  1  0  0  0  0
  4 14  1  0  0  0  0
  5  6  2  0  0  0  0
  5 15  1  0  0  0  0
  6 16  1  0  0  0  0
M  END
> <PUBCHEM_COMPOUND_CID>
8079

> <PUBCHEM_COMPOUND_CANONICALIZED>
1

> <PUBCHEM_CACTVS_COMPLEXITY>
45.1

> <PUBCHEM_CACTVS_HBOND_ACCEPTOR>
0

> <PUBCHEM_CACTVS_HBOND_DONOR>
0

> <PUBCHEM_CACTVS_ROTATABLE_BOND>
0

> <PUBCHEM_CACTVS_SUBSKEYS>
AAADccBgAAAAAAAAAAAAAAAAAAAAAAAAAAAgAAAAAAAAAAAAAAAAGAAAAAAACACAAAAAAAAAAACAACBCAAAAAAAgAAAICAAAAAgAAAIAAQAAAAAAgAAIAAMAAAAAAAAAAAAAAAAAAAAAAAAAAAAAAAAAAA==

> <PUBCHEM_IUPAC_OPENEYE_NAME>
cyclohexene

> <PUBCHEM_IUPAC_CAS_NAME>
cyclohexene

> <PUBCHEM_IUPAC_NAME>
cyclohexene

> <PUBCHEM_IUPAC_SYSTEMATIC_NAME>
cyclohexene

> <PUBCHEM_IUPAC_TRADITIONAL_NAME>
cyclohexene

> <PUBCHEM_IUPAC_INCHI>
InChI=1S/C6H10/c1-2-4-6-5-3-1/h1-2H,3-6H2

> <PUBCHEM_IUPAC_INCHIKEY>
HGCIXCUEYOPUTN-UHFFFAOYSA-N

> <PUBCHEM_XLOGP3>
2.9

> <PUBCHEM_EXACT_MASS>
82.07825

> <PUBCHEM_MOLECULAR_FORMULA>
C6H10

> <PUBCHEM_MOLECULAR_WEIGHT>
82.1436

> <PUBCHEM_OPENEYE_CAN_SMILES>
C1CCC=CC1

> <PUBCHEM_OPENEYE_ISO_SMILES>
C1CCC=CC1

> <PUBCHEM_CACTVS_TPSA>
0

> <PUBCHEM_MONOISOTOPIC_WEIGHT>
82.07825

> <PUBCHEM_TOTAL_CHARGE>
0

> <PUBCHEM_HEAVY_ATOM_COUNT>
6

> <PUBCHEM_ATOM_DEF_STEREO_COUNT>
0

> <PUBCHEM_ATOM_UDEF_STEREO_COUNT>
0

> <PUBCHEM_BOND_DEF_STEREO_COUNT>
0

> <PUBCHEM_BOND_UDEF_STEREO_COUNT>
0

> <PUBCHEM_ISOTOPIC_ATOM_COUNT>
0

> <PUBCHEM_COMPONENT_COUNT>
1

> <PUBCHEM_CACTVS_TAUTO_COUNT>
1

> <PUBCHEM_COORDINATE_TYPE>
1
5
255

$$$$
