10356185
  CDK     1229141458

 34 35  0  0  0  0  0  0  0  0999 V2000
    6.8671   -1.2500    0.0000 O   0  0  0  0  0  0  0  0  0  0  0  0
    6.0010    1.2500    0.0000 O   0  0  0  0  0  0  0  0  0  0  0  0
    8.5991   -4.2500    0.0000 O   0  0  0  0  0  0  0  0  0  0  0  0
    4.2690    4.2500    0.0000 O   0  0  0  0  0  0  0  0  0  0  0  0
    2.5369    3.2500    0.0000 O   0  0  0  0  0  0  0  0  0  0  0  0
   10.3312   -3.2500    0.0000 O   0  0  0  0  0  0  0  0  0  0  0  0
    6.0010    0.2500    0.0000 C   0  0  0  0  0  0  0  0  0  0  0  0
    6.8671   -0.2500    0.0000 C   0  0  0  0  0  0  0  0  0  0  0  0
    5.1350    1.7500    0.0000 C   0  0  0  0  0  0  0  0  0  0  0  0
    7.7331   -1.7500    0.0000 C   0  0  0  0  0  0  0  0  0  0  0  0
    5.1350    2.7500    0.0000 C   0  0  0  0  0  0  0  0  0  0  0  0
    7.7331   -2.7500    0.0000 C   0  0  0  0  0  0  0  0  0  0  0  0
    8.5991   -1.2500    0.0000 C   0  0  0  0  0  0  0  0  0  0  0  0
    4.2690    1.2500    0.0000 C   0  0  0  0  0  0  0  0  0  0  0  0
    4.2690    3.2500    0.0000 C   0  0  0  0  0  0  0  0  0  0  0  0
    8.5991   -3.2500    0.0000 C   0  0  0  0  0  0  0  0  0  0  0  0
    3.4030    2.7500    0.0000 C   0  0  0  0  0  0  0  0  0  0  0  0
    9.4651   -2.7500    0.0000 C   0  0  0  0  0  0  0  0  0  0  0  0
    9.4651   -1.7500    0.0000 C   0  0  0  0  0  0  0  0  0  0  0  0
    3.4030    1.7500    0.0000 C   0  0  0  0  0  0  0  0  0  0  0  0
    5.3905    0.3577    0.0000 H   0  0  0  0  0  0  0  0  0  0  0  0
    5.7890   -0.3326    0.0000 H   0  0  0  0  0  0  0  0  0  0  0  0
    7.4776   -0.3577    0.0000 H   0  0  0  0  0  0  0  0  0  0  0  0
    7.0791    0.3326    0.0000 H   0  0  0  0  0  0  0  0  0  0  0  0
    5.6720    3.0600    0.0000 H   0  0  0  0  0  0  0  0  0  0  0  0
    7.1962   -3.0600    0.0000 H   0  0  0  0  0  0  0  0  0  0  0  0
    4.2690    0.6300    0.0000 H   0  0  0  0  0  0  0  0  0  0  0  0
    8.5991   -0.6300    0.0000 H   0  0  0  0  0  0  0  0  0  0  0  0
    2.8660    1.4400    0.0000 H   0  0  0  0  0  0  0  0  0  0  0  0
   10.0021   -1.4400    0.0000 H   0  0  0  0  0  0  0  0  0  0  0  0
    4.8059    4.5600    0.0000 H   0  0  0  0  0  0  0  0  0  0  0  0
    8.0622   -4.5600    0.0000 H   0  0  0  0  0  0  0  0  0  0  0  0
    2.0000    2.9400    0.0000 H   0  0  0  0  0  0  0  0  0  0  0  0
   10.8681   -2.9400    0.0000 H   0  0  0  0  0  0  0  0  0  0  0  0
  1  8  1  0  0  0  0 
  1 10  1  0  0  0  0 
  2  7  1  0  0  0  0 
  2  9  1  0  0  0  0 
  3 16  1  0  0  0  0 
  3 32  1  0  0  0  0 
  4 15  1  0  0  0  0 
  4 31  1  0  0  0  0 
  5 17  1  0  0  0  0 
  5 33  1  0  0  0  0 
  6 18  1  0  0  0  0 
  6 34  1  0  0  0  0 
  7  8  1  0  0  0  0 
  7 21  1  0  0  0  0 
  7 22  1  0  0  0  0 
  8 23  1  0  0  0  0 
  8 24  1  0  0  0  0 
  9 11  2  0  0  0  0 
  9 14  1  0  0  0  0 
 10 12  2  0  0  0  0 
 10 13  1  0  0  0  0 
 11 15  1  0  0  0  0 
 11 25  1  0  0  0  0 
 12 16  1  0  0  0  0 
 12 26  1  0  0  0  0 
 13 19  2  0  0  0  0 
 13 28  1  0  0  0  0 
 14 20  2  0  0  0  0 
 14 27  1  0  0  0  0 
 15 17  2  0  0  0  0 
 16 18  2  0  0  0  0 
 17 20  1  0  0  0  0 
 18 19  1  0  0  0  0 
 19 30  1  0  0  0  0 
 20 29  1  0  0  0  0 
M  END
> <cdk:Title>
10356185

> <cdk:Remark>
null

> <PUBCHEM_COMPOUND_CID>
10356185

> <PUBCHEM_COMPOUND_CANONICALIZED>
1

> <PUBCHEM_CACTVS_COMPLEXITY>
259

> <PUBCHEM_CACTVS_HBOND_ACCEPTOR>
6

> <PUBCHEM_CACTVS_HBOND_DONOR>
4

> <PUBCHEM_CACTVS_ROTATABLE_BOND>
5

> <PUBCHEM_CACTVS_SUBSKEYS>
AAADccBwOAAAAAAAAAAAAAAAAAAAAAAAAAAwYAAAAAAAAAABQAAAGgAACAAACASgkAIwBoAABgCAACBCAAACCAAgIAAIiAAGiIgNJyKGMRqCeCGlwBULuAfAYAwAAQAACAAAQAACAAAQAACAAAAAAAAAAA==

> <PUBCHEM_IUPAC_OPENEYE_NAME>
4-[2-(3,4-dihydroxyphenoxy)ethoxy]benzene-1,2-diol

> <PUBCHEM_IUPAC_CAS_NAME>
4-[2-(3,4-dihydroxyphenoxy)ethoxy]benzene-1,2-diol

> <PUBCHEM_IUPAC_NAME>
4-[2-(3,4-dihydroxyphenoxy)ethoxy]benzene-1,2-diol

> <PUBCHEM_IUPAC_SYSTEMATIC_NAME>
4-[2-[3,4-bis(oxidanyl)phenoxy]ethoxy]benzene-1,2-diol

> <PUBCHEM_IUPAC_TRADITIONAL_NAME>
4-[2-(3,4-dihydroxyphenoxy)ethoxy]pyrocatechol

> <PUBCHEM_IUPAC_INCHI>
InChI=1S/C14H14O6/c15-11-3-1-9(7-13(11)17)19-5-6-20-10-2-4-12(16)14(18)8-10/h1-4,7-8,15-18H,5-6H2

> <PUBCHEM_IUPAC_INCHIKEY>
VCJGUFLLQPWAES-UHFFFAOYSA-N

> <PUBCHEM_XLOGP3_AA>
2.1

> <PUBCHEM_EXACT_MASS>
278.079038

> <PUBCHEM_MOLECULAR_FORMULA>
C14H14O6

> <PUBCHEM_MOLECULAR_WEIGHT>
278.25736

> <PUBCHEM_OPENEYE_CAN_SMILES>
C1=CC(=C(C=C1OCCOC2=CC(=C(C=C2)O)O)O)O

> <PUBCHEM_OPENEYE_ISO_SMILES>
C1=CC(=C(C=C1OCCOC2=CC(=C(C=C2)O)O)O)O

> <PUBCHEM_CACTVS_TPSA>
99.4

> <PUBCHEM_MONOISOTOPIC_WEIGHT>
278.079038

> <PUBCHEM_TOTAL_CHARGE>
0

> <PUBCHEM_HEAVY_ATOM_COUNT>
20

> <PUBCHEM_ATOM_DEF_STEREO_COUNT>
0

> <PUBCHEM_ATOM_UDEF_STEREO_COUNT>
0

> <PUBCHEM_BOND_DEF_STEREO_COUNT>
0

> <PUBCHEM_BOND_UDEF_STEREO_COUNT>
0

> <PUBCHEM_ISOTOPIC_ATOM_COUNT>
0

> <PUBCHEM_COMPONENT_COUNT>
1

> <PUBCHEM_CACTVS_TAUTO_COUNT>
21

> <PUBCHEM_COORDINATE_TYPE>
1

> <PUBCHEM_BONDANNOTATIONS>
10  12  8

$$$$
