
  CDK     0202151410

 13 14  0  0  0  0  0  0  0  0999 V2000
    4.5981    0.8170    0.0000 N   0  0  0  0  0  0  0  0  0  0  0  0
    4.5981    2.8170    0.0000 C   0  0  0  0  0  0  0  0  0  0  0  0
    3.7320    2.3170    0.0000 C   0  0  0  0  0  0  0  0  0  0  0  0
    5.4641    2.3170    0.0000 C   0  0  0  0  0  0  0  0  0  0  0  0
    3.7320    1.3170    0.0000 C   0  0  0  0  0  0  0  0  0  0  0  0
    5.4641    1.3170    0.0000 C   0  0  0  0  0  0  0  0  0  0  0  0
    4.5981   -0.1830    0.0000 C   0  0  0  0  0  0  0  0  0  0  0  0
    3.7320   -0.6830    0.0000 C   0  0  0  0  0  0  0  0  0  0  0  0
    5.4641   -0.6830    0.0000 C   0  0  0  0  0  0  0  0  0  0  0  0
    3.7320   -1.6830    0.0000 C   0  0  0  0  0  0  0  0  0  0  0  0
    2.8660   -0.1830    0.0000 C   0  0  0  0  0  0  0  0  0  0  0  0
    5.4641   -1.6830    0.0000 C   0  0  0  0  0  0  0  0  0  0  0  0
    4.5981   -2.1830    0.0000 C   0  0  0  0  0  0  0  0  0  0  0  0
  1  5  1  0  0  0  0 
  1  6  1  0  0  0  0 
  1  7  1  0  0  0  0 
  2  3  1  0  0  0  0 
  2  4  1  0  0  0  0 
  3  5  1  0  0  0  0 
  4  6  1  0  0  0  0 
  7  8  1  0  0  0  0 
  7  9  1  0  0  0  0 
  8 10  1  0  0  0  0 
  8 11  1  0  0  0  0 
  9 12  1  0  0  0  0 
 10 13  1  0  0  0  0 
 12 13  1  0  0  0  0 
M  END
> <PUBCHEM_COMPOUND_CID>
63565696

$$$$

  CDK     0202151410

 13 13  0  0  0  0  0  0  0  0999 V2000
    4.5981   -0.3660    0.0000 N   0  0  0  0  0  0  0  0  0  0  0  0
    5.4641   -1.8660    0.0000 N   0  0  0  0  0  0  0  0  0  0  0  0
    2.8660   -1.3660    0.0000 N   0  0  0  0  0  0  0  0  0  0  0  0
    4.5981    1.6340    0.0000 C   0  0  0  0  0  0  0  0  0  0  0  0
    3.7320    1.1340    0.0000 C   0  0  0  0  0  0  0  0  0  0  0  0
    5.4641    1.1340    0.0000 C   0  0  0  0  0  0  0  0  0  0  0  0
    3.7320    0.1340    0.0000 C   0  0  0  0  0  0  0  0  0  0  0  0
    5.4641    0.1340    0.0000 C   0  0  0  0  0  0  0  0  0  0  0  0
    5.0981    2.5000    0.0000 C   0  0  0  0  0  0  0  0  0  0  0  0
    4.5981   -1.3660    0.0000 C   0  0  0  0  0  0  0  0  0  0  0  0
    3.7320   -1.8660    0.0000 C   0  0  0  0  0  0  0  0  0  0  0  0
    3.7320   -2.8660    0.0000 C   0  0  0  0  0  0  0  0  0  0  0  0
    5.4641   -2.8660    0.0000 C   0  0  0  0  0  0  0  0  0  0  0  0
  1  7  1  0  0  0  0 
  1  8  1  0  0  0  0 
  1 10  1  0  0  0  0 
  2 10  1  0  0  0  0 
  2 13  1  0  0  0  0 
  3 11  1  0  0  0  0 
  4  5  1  0  0  0  0 
  4  6  1  0  0  0  0 
  4  9  1  0  0  0  0 
  5  7  1  0  0  0  0 
  6  8  1  0  0  0  0 
 10 11  1  0  0  0  0 
 11 12  1  0  0  0  0 
M  CHG  1   3   1
M  END
> <PUBCHEM_COMPOUND_CID>
68683765

$$$$

  CDK     0202151410

 13 13  0  0  0  0  0  0  0  0999 V2000
    4.5981   -0.3660    0.0000 N   0  0  0  0  0  0  0  0  0  0  0  0
    5.4641   -1.8660    0.0000 N   0  0  0  0  0  0  0  0  0  0  0  0
    2.8660   -1.3660    0.0000 N   0  0  0  0  0  0  0  0  0  0  0  0
    4.5981    1.6340    0.0000 C   0  0  0  0  0  0  0  0  0  0  0  0
    3.7320    1.1340    0.0000 C   0  0  0  0  0  0  0  0  0  0  0  0
    5.4641    1.1340    0.0000 C   0  0  0  0  0  0  0  0  0  0  0  0
    3.7320    0.1340    0.0000 C   0  0  0  0  0  0  0  0  0  0  0  0
    5.4641    0.1340    0.0000 C   0  0  0  0  0  0  0  0  0  0  0  0
    5.0981    2.5000    0.0000 C   0  0  0  0  0  0  0  0  0  0  0  0
    4.5981   -1.3660    0.0000 C   0  0  0  0  0  0  0  0  0  0  0  0
    3.7320   -1.8660    0.0000 C   0  0  0  0  0  0  0  0  0  0  0  0
    3.7320   -2.8660    0.0000 C   0  0  0  0  0  0  0  0  0  0  0  0
    5.4641   -2.8660    0.0000 C   0  0  0  0  0  0  0  0  0  0  0  0
  1  7  1  0  0  0  0 
  1  8  1  0  0  0  0 
  1 10  1  0  0  0  0 
  2 10  1  0  0  0  0 
  2 13  1  0  0  0  0 
  3 11  1  0  0  0  0 
  4  5  1  0  0  0  0 
  4  6  1  0  0  0  0 
  4  9  1  0  0  0  0 
  5  7  1  0  0  0  0 
  6  8  1  0  0  0  0 
 10 11  1  0  0  0  0 
 11 12  1  0  0  0  0 
M  CHG  1   3   1
M  END
> <PUBCHEM_COMPOUND_CID>
68683765

$$$$

  CDK     0202151410

 13 14  0  0  0  0  0  0  0  0999 V2000
    4.5981    0.8170    0.0000 N   0  0  0  0  0  0  0  0  0  0  0  0
    4.5981    2.8170    0.0000 C   0  0  0  0  0  0  0  0  0  0  0  0
    3.7320    2.3170    0.0000 C   0  0  0  0  0  0  0  0  0  0  0  0
    5.4641    2.3170    0.0000 C   0  0  0  0  0  0  0  0  0  0  0  0
    3.7320    1.3170    0.0000 C   0  0  0  0  0  0  0  0  0  0  0  0
    5.4641    1.3170    0.0000 C   0  0  0  0  0  0  0  0  0  0  0  0
    4.5981   -0.1830    0.0000 C   0  0  0  0  0  0  0  0  0  0  0  0
    3.7320   -0.6830    0.0000 C   0  0  0  0  0  0  0  0  0  0  0  0
    5.4641   -0.6830    0.0000 C   0  0  0  0  0  0  0  0  0  0  0  0
    3.7320   -1.6830    0.0000 C   0  0  0  0  0  0  0  0  0  0  0  0
    2.8660   -0.1830    0.0000 C   0  0  0  0  0  0  0  0  0  0  0  0
    5.4641   -1.6830    0.0000 C   0  0  0  0  0  0  0  0  0  0  0  0
    4.5981   -2.1830    0.0000 C   0  0  0  0  0  0  0  0  0  0  0  0
  1  5  1  0  0  0  0 
  1  6  1  0  0  0  0 
  1  7  1  0  0  0  0 
  2  3  1  0  0  0  0 
  2  4  1  0  0  0  0 
  3  5  1  0  0  0  0 
  4  6  1  0  0  0  0 
  7  8  1  0  0  0  0 
  7  9  1  0  0  0  0 
  8 10  1  0  0  0  0 
  8 11  1  0  0  0  0 
  9 12  1  0  0  0  0 
 10 13  1  0  0  0  0 
 12 13  1  0  0  0  0 
M  END
> <PUBCHEM_COMPOUND_CID>
63565696

$$$$

  CDK     0202151410

 14 14  0  0  0  0  0  0  0  0999 V2000
    3.7320    0.7500    0.0000 S   0  0  0  0  0  0  0  0  0  0  0  0
    4.7320    0.7500    0.0000 O   0  0  0  0  0  0  0  0  0  0  0  0
    2.7320    0.7500    0.0000 O   0  0  0  0  0  0  0  0  0  0  0  0
    3.7320    1.7500    0.0000 N   0  0  0  0  0  0  0  0  0  0  0  0
    3.7320   -0.2500    0.0000 C   0  0  0  0  0  0  0  0  0  0  0  0
    4.5981    2.2500    0.0000 C   0  0  0  0  0  0  0  0  0  0  0  0
    2.8660   -0.7500    0.0000 C   0  0  0  0  0  0  0  0  0  0  0  0
    4.5981   -0.7500    0.0000 C   0  0  0  0  0  0  0  0  0  0  0  0
    2.8660   -1.7500    0.0000 C   0  0  0  0  0  0  0  0  0  0  0  0
    4.5981   -1.7500    0.0000 C   0  0  0  0  0  0  0  0  0  0  0  0
    3.7320   -2.2500    0.0000 C   0  0  0  0  0  0  0  0  0  0  0  0
    5.4641    1.7500    0.0000 C   0  0  0  0  0  0  0  0  0  0  0  0
    4.5981    3.2500    0.0000 C   0  0  0  0  0  0  0  0  0  0  0  0
    6.3301    2.2500    0.0000 C   0  0  0  0  0  0  0  0  0  0  0  0
  1  2  1  0  0  0  0 
  1  3  1  0  0  0  0 
  1  4  1  0  0  0  0 
  1  5  1  0  0  0  0 
  4  6  1  0  0  0  0 
  5  7  1  0  0  0  0 
  5  8  1  0  0  0  0 
  6 12  1  0  0  0  0 
  6 13  1  0  0  0  0 
  7  9  1  0  0  0  0 
  8 10  1  0  0  0  0 
  9 11  1  0  0  0  0 
 10 11  1  0  0  0  0 
 12 14  1  0  0  0  0 
M  END
> <PUBCHEM_COMPOUND_CID>
8482806

$$$$
