
  CDK     0202151410

 17 17  0  0  0  0  0  0  0  0999 V2000
    2.8660   -4.0000    0.0000 O   0  0  0  0  0  0  0  0  0  0  0  0
    2.8660   -1.0000    0.0000 O   0  0  0  0  0  0  0  0  0  0  0  0
    7.1962   -2.5000    0.0000 N   0  0  0  0  0  0  0  0  0  0  0  0
    4.5981   -2.0000    0.0000 N   0  0  0  0  0  0  0  0  0  0  0  0
    3.7320    0.5000    0.0000 N   0  0  0  0  0  0  0  0  0  0  0  0
    6.3301   -2.0000    0.0000 C   0  0  0  0  0  0  0  0  0  0  0  0
    7.1962   -3.5000    0.0000 C   0  0  0  0  0  0  0  0  0  0  0  0
    8.0622   -2.0000    0.0000 C   0  0  0  0  0  0  0  0  0  0  0  0
    5.4641   -2.5000    0.0000 C   0  0  0  0  0  0  0  0  0  0  0  0
    4.5981   -1.0000    0.0000 C   0  0  0  0  0  0  0  0  0  0  0  0
    5.4641   -3.5000    0.0000 C   0  0  0  0  0  0  0  0  0  0  0  0
    3.7320   -2.5000    0.0000 C   0  0  0  0  0  0  0  0  0  0  0  0
    4.5981   -4.0000    0.0000 C   0  0  0  0  0  0  0  0  0  0  0  0
    3.7320   -3.5000    0.0000 C   0  0  0  0  0  0  0  0  0  0  0  0
    3.7320   -0.5000    0.0000 C   0  0  0  0  0  0  0  0  0  0  0  0
    2.8660    1.0000    0.0000 C   0  0  0  0  0  0  0  0  0  0  0  0
    2.8660    2.0000    0.0000 C   0  0  0  0  0  0  0  0  0  0  0  0
  1 14  1  0  0  0  0 
  2 15  1  0  0  0  0 
  3  6  1  0  0  0  0 
  3  7  1  0  0  0  0 
  3  8  1  0  0  0  0 
  4  9  1  0  0  0  0 
  4 10  1  0  0  0  0 
  4 12  1  0  0  0  0 
  5 15  1  0  0  0  0 
  5 16  1  0  0  0  0 
  6  9  1  0  0  0  0 
  9 11  1  0  0  0  0 
 10 15  1  0  0  0  0 
 11 13  1  0  0  0  0 
 12 14  1  0  0  0  0 
 13 14  1  0  0  0  0 
 16 17  1  0  0  0  0 
M  END
> <PUBCHEM_COMPOUND_CID>
30544573

$$$$

  CDK     0202151410

 17 19  0  0  0  0  0  0  0  0999 V2000
    9.0115   -1.5446    0.0000 S   0  0  0  0  0  0  0  0  0  0  0  0
    6.5306   -2.3536    0.0000 S   0  0  0  0  0  0  0  0  0  0  0  0
    6.5306   -0.7355    0.0000 N   0  0  0  0  0  0  0  0  0  0  0  0
    4.9428   -1.5446    0.0000 N   0  0  0  0  0  0  0  0  0  0  0  0
    7.4817   -1.0446    0.0000 C   0  0  2  0  0  0  0  0  0  0  0  0
    7.4817   -2.0446    0.0000 C   0  0  1  0  0  0  0  0  0  0  0  0
    8.4279   -0.7398    0.0000 C   0  0  0  0  0  0  0  0  0  0  0  0
    8.4279   -2.3493    0.0000 C   0  0  0  0  0  0  0  0  0  0  0  0
    5.9428   -1.5446    0.0000 C   0  0  0  0  0  0  0  0  0  0  0  0
    6.2216    0.2155    0.0000 C   0  0  0  0  0  0  0  0  0  0  0  0
    4.4428   -2.4106    0.0000 C   0  0  0  0  0  0  0  0  0  0  0  0
    5.2435    0.4234    0.0000 C   0  0  0  0  0  0  0  0  0  0  0  0
    4.9344    1.3745    0.0000 C   0  0  0  0  0  0  0  0  0  0  0  0
    4.5743   -0.3197    0.0000 C   0  0  0  0  0  0  0  0  0  0  0  0
    3.9563    1.5824    0.0000 C   0  0  0  0  0  0  0  0  0  0  0  0
    3.5962   -0.1118    0.0000 C   0  0  0  0  0  0  0  0  0  0  0  0
    3.2872    0.8393    0.0000 C   0  0  0  0  0  0  0  0  0  0  0  0
  1  7  1  0  0  0  0 
  1  8  1  0  0  0  0 
  2  6  1  0  0  0  0 
  2  9  1  0  0  0  0 
  3  5  1  0  0  0  0 
  3  9  1  0  0  0  0 
  3 10  1  0  0  0  0 
  4  9  1  0  0  0  0 
  4 11  1  0  0  0  0 
  5  6  1  0  0  0  0 
  5  7  1  0  0  0  0 
  6  8  1  0  0  0  0 
 10 12  1  0  0  0  0 
 12 13  1  0  0  0  0 
 12 14  1  0  0  0  0 
 13 15  1  0  0  0  0 
 14 16  1  0  0  0  0 
 15 17  1  0  0  0  0 
 16 17  1  0  0  0  0 
M  END
> <PUBCHEM_COMPOUND_CID>
7582516

$$$$

  CDK     0202151410

 17 17  0  0  0  0  0  0  0  0999 V2000
    3.5827   -1.2500    0.0000 O   0  0  0  0  0  0  0  0  0  0  0  0
    5.3147   -3.2500    0.0000 N   0  0  0  0  0  0  0  0  0  0  0  0
    5.3147   -1.2500    0.0000 N   0  0  0  0  0  0  0  0  0  0  0  0
    7.9128    3.2500    0.0000 N   0  0  3  0  0  0  0  0  0  0  0  0
    3.5827   -3.2500    0.0000 C   0  0  0  0  0  0  0  0  0  0  0  0
    2.6691   -2.8433    0.0000 C   0  0  0  0  0  0  0  0  0  0  0  0
    3.4782   -4.2445    0.0000 C   0  0  0  0  0  0  0  0  0  0  0  0
    4.4487   -2.7500    0.0000 C   0  0  3  0  0  0  0  0  0  0  0  0
    4.4487   -1.7500    0.0000 C   0  0  0  0  0  0  0  0  0  0  0  0
    5.3147   -0.2500    0.0000 C   0  0  0  0  0  0  0  0  0  0  0  0
    7.0468    2.7500    0.0000 C   0  0  0  0  0  0  0  0  0  0  0  0
    7.0468    1.7500    0.0000 C   0  0  0  0  0  0  0  0  0  0  0  0
    6.1808    0.2500    0.0000 C   0  0  0  0  0  0  0  0  0  0  0  0
    6.1808    1.2500    0.0000 C   0  0  0  0  0  0  0  0  0  0  0  0
    7.9128    1.2500    0.0000 C   0  0  0  0  0  0  0  0  0  0  0  0
    7.0468   -0.2500    0.0000 C   0  0  0  0  0  0  0  0  0  0  0  0
    7.9128    0.2500    0.0000 C   0  0  0  0  0  0  0  0  0  0  0  0
  1  9  1  0  0  0  0 
  2  8  1  0  0  0  0 
  3  9  1  0  0  0  0 
  3 10  1  0  0  0  0 
  4 11  1  0  0  0  0 
  5  6  1  0  0  0  0 
  5  7  1  0  0  0  0 
  5  8  1  0  0  0  0 
  8  9  1  0  0  0  0 
 10 13  1  0  0  0  0 
 11 12  1  0  0  0  0 
 12 14  1  0  0  0  0 
 12 15  1  0  0  0  0 
 13 14  1  0  0  0  0 
 13 16  1  0  0  0  0 
 15 17  1  0  0  0  0 
 16 17  1  0  0  0  0 
M  END
> <PUBCHEM_COMPOUND_CID>
47899785

$$$$

  CDK     0202151410

 17 17  0  0  0  0  0  0  0  0999 V2000
    3.5827   -1.2500    0.0000 O   0  0  0  0  0  0  0  0  0  0  0  0
    5.3147   -3.2500    0.0000 N   0  0  0  0  0  0  0  0  0  0  0  0
    5.3147   -1.2500    0.0000 N   0  0  0  0  0  0  0  0  0  0  0  0
    7.9128    3.2500    0.0000 N   0  0  3  0  0  0  0  0  0  0  0  0
    3.5827   -3.2500    0.0000 C   0  0  0  0  0  0  0  0  0  0  0  0
    2.6691   -2.8433    0.0000 C   0  0  0  0  0  0  0  0  0  0  0  0
    3.4782   -4.2445    0.0000 C   0  0  0  0  0  0  0  0  0  0  0  0
    4.4487   -2.7500    0.0000 C   0  0  3  0  0  0  0  0  0  0  0  0
    4.4487   -1.7500    0.0000 C   0  0  0  0  0  0  0  0  0  0  0  0
    5.3147   -0.2500    0.0000 C   0  0  0  0  0  0  0  0  0  0  0  0
    7.0468    2.7500    0.0000 C   0  0  0  0  0  0  0  0  0  0  0  0
    7.0468    1.7500    0.0000 C   0  0  0  0  0  0  0  0  0  0  0  0
    6.1808    0.2500    0.0000 C   0  0  0  0  0  0  0  0  0  0  0  0
    6.1808    1.2500    0.0000 C   0  0  0  0  0  0  0  0  0  0  0  0
    7.9128    1.2500    0.0000 C   0  0  0  0  0  0  0  0  0  0  0  0
    7.0468   -0.2500    0.0000 C   0  0  0  0  0  0  0  0  0  0  0  0
    7.9128    0.2500    0.0000 C   0  0  0  0  0  0  0  0  0  0  0  0
  1  9  1  0  0  0  0 
  2  8  1  0  0  0  0 
  3  9  1  0  0  0  0 
  3 10  1  0  0  0  0 
  4 11  1  0  0  0  0 
  5  6  1  0  0  0  0 
  5  7  1  0  0  0  0 
  5  8  1  0  0  0  0 
  8  9  1  0  0  0  0 
 10 13  1  0  0  0  0 
 11 12  1  0  0  0  0 
 12 14  1  0  0  0  0 
 12 15  1  0  0  0  0 
 13 14  1  0  0  0  0 
 13 16  1  0  0  0  0 
 15 17  1  0  0  0  0 
 16 17  1  0  0  0  0 
M  END
> <PUBCHEM_COMPOUND_CID>
47899785

$$$$

  CDK     0202151410

 17 17  0  0  0  0  0  0  0  0999 V2000
    7.0255   -1.6012    0.0000 S   0  0  0  0  0  0  0  0  0  0  0  0
    5.2460   -1.5079    0.0000 S   0  0  0  0  0  0  0  0  0  0  0  0
   10.4896    0.3988    0.0000 O   0  0  0  0  0  0  0  0  0  0  0  0
    8.7576   -2.6012    0.0000 O   0  0  0  0  0  0  0  0  0  0  0  0
   12.2217    0.3988    0.0000 N   0  0  0  0  0  0  0  0  0  0  0  0
    9.6236   -1.1012    0.0000 N   0  0  0  0  0  0  0  0  0  0  0  0
   11.3557   -1.1012    0.0000 C   0  0  0  0  0  0  0  0  0  0  0  0
   10.4896   -1.6012    0.0000 C   0  0  0  0  0  0  0  0  0  0  0  0
   12.2217    1.3988    0.0000 C   0  0  0  0  0  0  0  0  0  0  0  0
   11.3557   -0.1012    0.0000 C   0  0  0  0  0  0  0  0  0  0  0  0
   12.2217   -1.6012    0.0000 C   0  0  0  0  0  0  0  0  0  0  0  0
   10.4896   -2.6012    0.0000 C   0  0  0  0  0  0  0  0  0  0  0  0
   12.2217   -2.6012    0.0000 C   0  0  0  0  0  0  0  0  0  0  0  0
   11.3557   -3.1012    0.0000 C   0  0  0  0  0  0  0  0  0  0  0  0
    8.7576   -1.6012    0.0000 C   0  0  0  0  0  0  0  0  0  0  0  0
    7.8916   -1.1012    0.0000 C   0  0  0  0  0  0  0  0  0  0  0  0
    6.1595   -1.1012    0.0000 C   0  0  0  0  0  0  0  0  0  0  0  0
  1 16  1  0  0  0  0 
  1 17  1  0  0  0  0 
  2 17  1  0  0  0  0 
  3 10  1  0  0  0  0 
  4 15  1  0  0  0  0 
  5  9  1  0  0  0  0 
  5 10  1  0  0  0  0 
  6  8  1  0  0  0  0 
  6 15  1  0  0  0  0 
  7  8  1  0  0  0  0 
  7 10  1  0  0  0  0 
  7 11  1  0  0  0  0 
  8 12  1  0  0  0  0 
 11 13  1  0  0  0  0 
 12 14  1  0  0  0  0 
 13 14  1  0  0  0  0 
 15 16  1  0  0  0  0 
M  END
> <PUBCHEM_COMPOUND_CID>
8351491

$$$$

  CDK     0202151410

 17 16  0  0  0  0  0  0  0  0999 V2000
    8.9282   -1.2673    0.0000 O   0  0  0  0  0  0  0  0  0  0  0  0
    4.5981    0.2327    0.0000 O   0  0  0  0  0  0  0  0  0  0  0  0
    6.3301    1.2327    0.0000 O   0  0  0  0  0  0  0  0  0  0  0  0
    9.7942    0.2327    0.0000 N   0  0  0  0  0  0  0  0  0  0  0  0
    7.1962   -0.2673    0.0000 N   0  0  0  0  0  0  0  0  0  0  0  0
   10.6603   -0.2673    0.0000 C   0  0  1  0  0  0  0  0  0  0  0  0
   11.5263    0.2327    0.0000 C   0  0  0  0  0  0  0  0  0  0  0  0
    8.0622    0.2327    0.0000 C   0  0  1  0  0  0  0  0  0  0  0  0
   12.3923   -0.2673    0.0000 C   0  0  0  0  0  0  0  0  0  0  0  0
   10.6603   -1.2673    0.0000 C   0  0  0  0  0  0  0  0  0  0  0  0
   13.2583    0.2327    0.0000 C   0  0  0  0  0  0  0  0  0  0  0  0
   11.5263    1.2327    0.0000 C   0  0  0  0  0  0  0  0  0  0  0  0
    8.9282   -0.2673    0.0000 C   0  0  0  0  0  0  0  0  0  0  0  0
   12.3923    1.7327    0.0000 C   0  0  0  0  0  0  0  0  0  0  0  0
    8.0622    1.2327    0.0000 C   0  0  0  0  0  0  0  0  0  0  0  0
    6.3301    0.2327    0.0000 C   0  0  0  0  0  0  0  0  0  0  0  0
    5.4641   -0.2673    0.0000 C   0  0  0  0  0  0  0  0  0  0  0  0
  1 13  1  0  0  0  0 
  2 17  1  0  0  0  0 
  3 16  1  0  0  0  0 
  6  4  1  1  0  0  0 
  4 13  1  0  0  0  0 
  8  5  1  6  0  0  0 
  5 16  1  0  0  0  0 
  6  7  1  0  0  0  0 
  6 10  1  0  0  0  0 
  7  9  1  0  0  0  0 
  7 12  1  0  0  0  0 
  8 13  1  0  0  0  0 
  8 15  1  0  0  0  0 
  9 11  1  0  0  0  0 
 12 14  1  0  0  0  0 
 16 17  1  0  0  0  0 
M  END
> <PUBCHEM_COMPOUND_CID>
37545929

$$$$

  CDK     0202151410

 17 18  0  0  0  0  0  0  0  0999 V2000
    8.7788    0.5839    0.0000 S   0  0  0  0  0  0  0  0  0  0  0  0
    8.2788    1.4499    0.0000 O   0  0  0  0  0  0  0  0  0  0  0  0
    9.2788   -0.2821    0.0000 O   0  0  0  0  0  0  0  0  0  0  0  0
    7.9128    0.0839    0.0000 N   0  0  0  0  0  0  0  0  0  0  0  0
    4.4487   -0.9161    0.0000 C   0  0  0  0  0  0  0  0  0  0  0  0
    4.4487    0.0839    0.0000 C   0  0  0  0  0  0  0  0  0  0  0  0
    5.3147   -1.4161    0.0000 C   0  0  0  0  0  0  0  0  0  0  0  0
    6.1808    0.0839    0.0000 C   0  0  0  0  0  0  0  0  0  0  0  0
    5.3147    0.5839    0.0000 C   0  0  0  0  0  0  0  0  0  0  0  0
    6.1808   -0.9161    0.0000 C   0  0  0  0  0  0  0  0  0  0  0  0
    7.0468    0.5839    0.0000 C   0  0  0  0  0  0  0  0  0  0  0  0
    9.6449    1.0839    0.0000 C   0  0  0  0  0  0  0  0  0  0  0  0
   10.5109    0.5839    0.0000 C   0  0  0  0  0  0  0  0  0  0  0  0
   11.3769    1.0839    0.0000 C   0  0  0  0  0  0  0  0  0  0  0  0
    9.6449    2.0839    0.0000 C   0  0  0  0  0  0  0  0  0  0  0  0
   11.3769    2.0839    0.0000 C   0  0  0  0  0  0  0  0  0  0  0  0
   10.5109    2.5839    0.0000 C   0  0  0  0  0  0  0  0  0  0  0  0
  1  2  1  0  0  0  0 
  1  3  1  0  0  0  0 
  1  4  1  0  0  0  0 
  1 12  1  0  0  0  0 
  4 11  1  0  0  0  0 
  5  6  1  0  0  0  0 
  5  7  1  0  0  0  0 
  6  9  1  0  0  0  0 
  7 10  1  0  0  0  0 
  8  9  1  0  0  0  0 
  8 10  1  0  0  0  0 
  8 11  1  0  0  0  0 
 12 13  1  0  0  0  0 
 12 15  1  0  0  0  0 
 13 14  1  0  0  0  0 
 14 16  1  0  0  0  0 
 15 17  1  0  0  0  0 
 16 17  1  0  0  0  0 
M  END
> <PUBCHEM_COMPOUND_CID>
37551805

$$$$

  CDK     0202151410

 17 16  0  0  0  0  0  0  0  0999 V2000
    8.9282   -1.2673    0.0000 O   0  0  0  0  0  0  0  0  0  0  0  0
    4.5981    0.2327    0.0000 O   0  0  0  0  0  0  0  0  0  0  0  0
    6.3301    1.2327    0.0000 O   0  0  0  0  0  0  0  0  0  0  0  0
    9.7942    0.2327    0.0000 N   0  0  0  0  0  0  0  0  0  0  0  0
    7.1962   -0.2673    0.0000 N   0  0  0  0  0  0  0  0  0  0  0  0
   10.6603   -0.2673    0.0000 C   0  0  1  0  0  0  0  0  0  0  0  0
   11.5263    0.2327    0.0000 C   0  0  0  0  0  0  0  0  0  0  0  0
    8.0622    0.2327    0.0000 C   0  0  1  0  0  0  0  0  0  0  0  0
   12.3923   -0.2673    0.0000 C   0  0  0  0  0  0  0  0  0  0  0  0
   10.6603   -1.2673    0.0000 C   0  0  0  0  0  0  0  0  0  0  0  0
   13.2583    0.2327    0.0000 C   0  0  0  0  0  0  0  0  0  0  0  0
   11.5263    1.2327    0.0000 C   0  0  0  0  0  0  0  0  0  0  0  0
    8.9282   -0.2673    0.0000 C   0  0  0  0  0  0  0  0  0  0  0  0
   12.3923    1.7327    0.0000 C   0  0  0  0  0  0  0  0  0  0  0  0
    8.0622    1.2327    0.0000 C   0  0  0  0  0  0  0  0  0  0  0  0
    6.3301    0.2327    0.0000 C   0  0  0  0  0  0  0  0  0  0  0  0
    5.4641   -0.2673    0.0000 C   0  0  0  0  0  0  0  0  0  0  0  0
  1 13  1  0  0  0  0 
  2 17  1  0  0  0  0 
  3 16  1  0  0  0  0 
  6  4  1  1  0  0  0 
  4 13  1  0  0  0  0 
  8  5  1  6  0  0  0 
  5 16  1  0  0  0  0 
  6  7  1  0  0  0  0 
  6 10  1  0  0  0  0 
  7  9  1  0  0  0  0 
  7 12  1  0  0  0  0 
  8 13  1  0  0  0  0 
  8 15  1  0  0  0  0 
  9 11  1  0  0  0  0 
 12 14  1  0  0  0  0 
 16 17  1  0  0  0  0 
M  END
> <PUBCHEM_COMPOUND_CID>
37545929

$$$$
