
  CDK     1223141415

 20 22  0  0  0  0  0  0  0  0999 V2000
    2.8090   -4.0963    0.0000 N   0  0  0  0  0  0  0  0  0  0  0  0
    7.1102   -0.2298    0.0000 N   0  0  0  0  0  0  0  0  0  0  0  0
    5.3781   -3.2298    0.0000 N   0  0  0  0  0  0  0  0  0  0  0  0
    5.8781   -4.7686    0.0000 N   0  0  0  0  0  0  0  0  0  0  0  0
    4.8781   -4.7686    0.0000 N   0  0  0  0  0  0  0  0  0  0  0  0
    7.1102    2.7702    0.0000 C   0  0  0  0  0  0  0  0  0  0  0  0
    7.9762    2.2702    0.0000 C   0  0  0  0  0  0  0  0  0  0  0  0
    6.2441    2.2702    0.0000 C   0  0  0  0  0  0  0  0  0  0  0  0
    7.1102    0.7702    0.0000 C   0  0  0  0  0  0  0  0  0  0  0  0
    7.9762    1.2702    0.0000 C   0  0  0  0  0  0  0  0  0  0  0  0
    6.2441    1.2702    0.0000 C   0  0  0  0  0  0  0  0  0  0  0  0
    6.2441   -0.7298    0.0000 C   0  0  0  0  0  0  0  0  0  0  0  0
    6.2441   -1.7298    0.0000 C   0  0  0  0  0  0  0  0  0  0  0  0
    5.3781   -2.2298    0.0000 C   0  0  0  0  0  0  0  0  0  0  0  0
    4.5691   -3.8176    0.0000 C   0  0  0  0  0  0  0  0  0  0  0  0
    6.1871   -3.8176    0.0000 C   0  0  0  0  0  0  0  0  0  0  0  0
    3.6180   -3.5086    0.0000 C   0  0  0  0  0  0  0  0  0  0  0  0
    3.3090   -2.5575    0.0000 C   0  0  0  0  0  0  0  0  0  0  0  0
    2.3090   -2.5575    0.0000 C   0  0  0  0  0  0  0  0  0  0  0  0
    2.0000   -3.5086    0.0000 C   0  0  0  0  0  0  0  0  0  0  0  0
  1 17  1  0  0  0  0 
  1 20  1  0  0  0  0 
  2  9  1  0  0  0  0 
  2 12  1  0  0  0  0 
  3 14  1  0  0  0  0 
  3 15  1  0  0  0  0 
  3 16  1  0  0  0  0 
  4  5  1  0  0  0  0 
  4 16  1  0  0  0  0 
  5 15  1  0  0  0  0 
  6  7  1  0  0  0  0 
  6  8  1  0  0  0  0 
  7 10  1  0  0  0  0 
  8 11  1  0  0  0  0 
  9 10  1  0  0  0  0 
  9 11  1  0  0  0  0 
 12 13  1  0  0  0  0 
 13 14  1  0  0  0  0 
 15 17  1  0  0  0  0 
 17 18  1  0  0  0  0 
 18 19  1  0  0  0  0 
 19 20  1  0  0  0  0 
M  ISO  1   1  32
M  END
> <PUBCHEM_COMPOUND_CID>
33295171

$$$$

  CDK     1223141415

 20 22  0  0  0  0  0  0  0  0999 V2000
    7.1962    1.5000    0.0000 N   0  0  0  0  0  0  0  0  0  0  0  0
    6.3301    2.0000    0.0000 C   0  0  1  0  0  0  0  0  0  0  0  0
    6.3301    3.0000    0.0000 C   0  0  2  0  0  0  0  0  0  0  0  0
    7.1962    3.5000    0.0000 C   0  0  0  0  0  0  0  0  0  0  0  0
    8.0622    3.0000    0.0000 C   0  0  0  0  0  0  0  0  0  0  0  0
    8.0622    2.0000    0.0000 C   0  0  0  0  0  0  0  0  0  0  0  0
    5.4641    1.5000    0.0000 C   0  0  0  0  0  0  0  0  0  0  0  0
    7.1962    0.5000    0.0000 C   0  0  0  0  0  0  0  0  0  0  0  0
    8.0622    0.0000    0.0000 C   0  0  0  0  0  0  0  0  0  0  0  0
    5.4641    0.5000    0.0000 C   0  0  0  0  0  0  0  0  0  0  0  0
    4.5981    2.0000    0.0000 C   0  0  0  0  0  0  0  0  0  0  0  0
    8.0622   -1.0000    0.0000 C   0  0  0  0  0  0  0  0  0  0  0  0
    3.7320    1.5000    0.0000 C   0  0  0  0  0  0  0  0  0  0  0  0
    4.5981    0.0000    0.0000 C   0  0  0  0  0  0  0  0  0  0  0  0
    3.7320    0.5000    0.0000 C   0  0  0  0  0  0  0  0  0  0  0  0
    7.1962   -1.5000    0.0000 C   0  0  0  0  0  0  0  0  0  0  0  0
    8.9282   -1.5000    0.0000 C   0  0  0  0  0  0  0  0  0  0  0  0
    7.1962   -2.5000    0.0000 C   0  0  0  0  0  0  0  0  0  0  0  0
    8.9282   -2.5000    0.0000 C   0  0  0  0  0  0  0  0  0  0  0  0
    8.0622   -3.0000    0.0000 C   0  0  0  0  0  0  0  0  0  0  0  0
  1  2  1  0  0  0  0 
  1  6  1  0  0  0  0 
  1  8  1  0  0  0  0 
  2  3  1  0  0  0  0 
  2  7  1  6  0  0  0 
  3  4  1  0  0  0  0 
  4  5  1  0  0  0  0 
  5  6  1  0  0  0  0 
  7 10  1  0  0  0  0 
  7 11  1  0  0  0  0 
  8  9  1  0  0  0  0 
  9 12  1  0  0  0  0 
 10 14  1  0  0  0  0 
 11 13  1  0  0  0  0 
 12 16  1  0  0  0  0 
 12 17  1  0  0  0  0 
 13 15  1  0  0  0  0 
 14 15  1  0  0  0  0 
 16 18  1  0  0  0  0 
 17 19  1  0  0  0  0 
 18 20  1  0  0  0  0 
 19 20  1  0  0  0  0 
M  END
> <PUBCHEM_COMPOUND_CID>
40778163

$$$$

  CDK     1223141415

 20 22  0  0  0  0  0  0  0  0999 V2000
    4.5981   -0.3023    0.0000 N   0  0  0  0  0  0  0  0  0  0  0  0
    4.7026    0.6922    0.0000 N   0  0  0  0  0  0  0  0  0  0  0  0
    6.0875    1.8137    0.0000 N   0  0  0  0  0  0  0  0  0  0  0  0
    8.4833    2.9363    0.0000 N   0  0  0  0  0  0  0  0  0  0  0  0
    8.9833    3.8023    0.0000 N   0  0  0  0  0  0  0  0  0  0  0  0
    3.7320   -0.8023    0.0000 C   0  0  0  0  0  0  0  0  0  0  0  0
    5.5116   -0.7090    0.0000 C   0  0  0  0  0  0  0  0  0  0  0  0
    3.7320   -1.8023    0.0000 C   0  0  0  0  0  0  0  0  0  0  0  0
    5.6808    0.9001    0.0000 C   0  0  0  0  0  0  0  0  0  0  0  0
    6.1808    0.0341    0.0000 C   0  0  0  0  0  0  0  0  0  0  0  0
    2.8660   -2.3023    0.0000 C   0  0  0  0  0  0  0  0  0  0  0  0
    4.5981   -2.3023    0.0000 C   0  0  0  0  0  0  0  0  0  0  0  0
    2.8660   -3.3023    0.0000 C   0  0  0  0  0  0  0  0  0  0  0  0
    7.4888    2.8318    0.0000 C   0  0  0  0  0  0  0  0  0  0  0  0
    7.0820    1.9182    0.0000 C   0  0  0  0  0  0  0  0  0  0  0  0
    4.5981   -3.3023    0.0000 C   0  0  0  0  0  0  0  0  0  0  0  0
    3.7320   -3.8023    0.0000 C   0  0  0  0  0  0  0  0  0  0  0  0
    9.1524    2.1931    0.0000 C   0  0  0  0  0  0  0  0  0  0  0  0
   10.0659    2.5999    0.0000 C   0  0  0  0  0  0  0  0  0  0  0  0
    9.9614    3.5944    0.0000 C   0  0  0  0  0  0  0  0  0  0  0  0
  1  2  1  0  0  0  0 
  1  6  1  0  0  0  0 
  1  7  1  0  0  0  0 
  2  9  1  0  0  0  0 
  3  9  1  0  0  0  0 
  3 15  1  0  0  0  0 
  4  5  1  0  0  0  0 
  4 14  1  0  0  0  0 
  4 18  1  0  0  0  0 
  5 20  1  0  0  0  0 
  6  8  1  0  0  0  0 
  7 10  1  0  0  0  0 
  8 11  1  0  0  0  0 
  8 12  1  0  0  0  0 
  9 10  1  0  0  0  0 
 11 13  1  0  0  0  0 
 12 16  1  0  0  0  0 
 13 17  1  0  0  0  0 
 14 15  1  0  0  0  0 
 16 17  1  0  0  0  0 
 18 19  1  0  0  0  0 
 19 20  1  0  0  0  0 
M  END
> <PUBCHEM_COMPOUND_CID>
19502787

$$$$

  CDK     1223141415

 20 22  0  0  0  0  0  0  0  0999 V2000
   14.2045    0.7377    0.0000 N   0  0  0  0  0  0  0  0  0  0  0  0
   14.2045   -0.8717    0.0000 N   0  0  0  0  0  0  0  0  0  0  0  0
    4.5981   -0.5670    0.0000 N   0  0  0  0  0  0  0  0  0  0  0  0
    7.1962    0.9330    0.0000 N   0  0  0  0  0  0  0  0  0  0  0  0
    9.7942    0.4330    0.0000 N   0  0  0  0  0  0  0  0  0  0  0  0
    6.3301    0.4330    0.0000 C   0  0  0  0  0  0  0  0  0  0  0  0
    6.3301   -0.5670    0.0000 C   0  0  0  0  0  0  0  0  0  0  0  0
    5.4641    0.9330    0.0000 C   0  0  0  0  0  0  0  0  0  0  0  0
    5.4641   -1.0670    0.0000 C   0  0  0  0  0  0  0  0  0  0  0  0
    4.5981    0.4330    0.0000 C   0  0  0  0  0  0  0  0  0  0  0  0
    8.0622    0.4330    0.0000 C   0  0  0  0  0  0  0  0  0  0  0  0
    8.9282    0.9330    0.0000 C   0  0  0  0  0  0  0  0  0  0  0  0
   10.6603    0.9330    0.0000 C   0  0  0  0  0  0  0  0  0  0  0  0
   11.5263    0.4330    0.0000 C   0  0  0  0  0  0  0  0  0  0  0  0
   12.3923    0.9330    0.0000 C   0  0  0  0  0  0  0  0  0  0  0  0
   13.2583    0.4330    0.0000 C   0  0  0  0  0  0  0  0  0  0  0  0
   13.2583   -0.5670    0.0000 C   0  0  0  0  0  0  0  0  0  0  0  0
   11.5263   -0.5670    0.0000 C   0  0  0  0  0  0  0  0  0  0  0  0
   12.3923   -1.0670    0.0000 C   0  0  0  0  0  0  0  0  0  0  0  0
   14.7882   -0.0670    0.0000 C   0  0  0  0  0  0  0  0  0  0  0  0
  1 16  1  0  0  0  0 
  1 20  1  0  0  0  0 
  2 17  1  0  0  0  0 
  2 20  1  0  0  0  0 
  3  9  1  0  0  0  0 
  3 10  1  0  0  0  0 
  4  6  1  0  0  0  0 
  4 11  1  0  0  0  0 
  5 12  1  0  0  0  0 
  5 13  1  0  0  0  0 
  6  7  1  0  0  0  0 
  6  8  1  0  0  0  0 
  7  9  1  0  0  0  0 
  8 10  1  0  0  0  0 
 11 12  1  0  0  0  0 
 13 14  1  0  0  0  0 
 14 15  1  0  0  0  0 
 14 18  1  0  0  0  0 
 15 16  1  0  0  0  0 
 16 17  1  0  0  0  0 
 17 19  1  0  0  0  0 
 18 19  1  0  0  0  0 
M  ISO  1   1  16
M  ISO  1   2  16
M  END
> <PUBCHEM_COMPOUND_CID>
33221389

$$$$

  CDK     1223141415

 20 22  0  0  0  0  0  0  0  0999 V2000
    3.7111    1.8156    0.0000 N   0  0  0  0  0  0  0  0  0  0  0  0
    3.8680   -1.8857    0.0000 N   0  0  0  0  0  0  0  0  0  0  0  0
    3.7635   -2.8802    0.0000 C   0  0  0  0  0  0  0  0  0  0  0  0
    3.1249   -1.2166    0.0000 C   0  0  0  0  0  0  0  0  0  0  0  0
    4.8462   -1.6778    0.0000 C   0  0  0  0  0  0  0  0  0  0  0  0
    4.6771   -3.2870    0.0000 C   0  0  0  0  0  0  0  0  0  0  0  0
    2.8975   -3.3802    0.0000 C   0  0  0  0  0  0  0  0  0  0  0  0
    3.3328   -0.2384    0.0000 C   0  0  0  0  0  0  0  0  0  0  0  0
    5.3462   -2.5438    0.0000 C   0  0  0  0  0  0  0  0  0  0  0  0
    2.8975   -4.3802    0.0000 C   0  0  0  0  0  0  0  0  0  0  0  0
    2.7976    1.4088    0.0000 C   0  0  0  0  0  0  0  0  0  0  0  0
    2.5896    0.4307    0.0000 C   0  0  0  0  0  0  0  0  0  0  0  0
    3.6066    2.8101    0.0000 C   0  0  0  0  0  0  0  0  0  0  0  0
    3.7635   -4.8802    0.0000 C   0  0  0  0  0  0  0  0  0  0  0  0
    2.0314   -4.8802    0.0000 C   0  0  0  0  0  0  0  0  0  0  0  0
    2.1284    2.1520    0.0000 C   0  0  0  0  0  0  0  0  0  0  0  0
    2.6284    3.0180    0.0000 C   0  0  0  0  0  0  0  0  0  0  0  0
    2.8975   -6.3802    0.0000 C   0  0  0  0  0  0  0  0  0  0  0  0
    3.7635   -5.8802    0.0000 C   0  0  0  0  0  0  0  0  0  0  0  0
    2.0314   -5.8802    0.0000 C   0  0  0  0  0  0  0  0  0  0  0  0
  1 11  1  0  0  0  0 
  1 13  1  0  0  0  0 
  2  3  1  0  0  0  0 
  2  4  1  0  0  0  0 
  2  5  1  0  0  0  0 
  3  6  1  0  0  0  0 
  3  7  1  0  0  0  0 
  4  8  1  0  0  0  0 
  5  9  1  0  0  0  0 
  6  9  1  0  0  0  0 
  7 10  1  0  0  0  0 
  8 12  1  0  0  0  0 
 10 14  1  0  0  0  0 
 10 15  1  0  0  0  0 
 11 12  1  0  0  0  0 
 11 16  1  0  0  0  0 
 13 17  1  0  0  0  0 
 14 19  1  0  0  0  0 
 15 20  1  0  0  0  0 
 16 17  1  0  0  0  0 
 18 19  1  0  0  0  0 
 18 20  1  0  0  0  0 
M  ISO  1   1  32
M  END
> <PUBCHEM_COMPOUND_CID>
59792844

$$$$

  CDK     1223141415

 20 22  0  0  0  0  0  0  0  0999 V2000
    3.7321   -2.8170    0.0000 N   0  0  0  0  0  0  0  0  0  0  0  0
    4.5981    1.6830    0.0000 N   0  0  0  0  0  0  0  0  0  0  0  0
    2.8660   -4.3170    0.0000 C   0  0  0  0  0  0  0  0  0  0  0  0
    2.3660   -5.1830    0.0000 C   0  0  0  0  0  0  0  0  0  0  0  0
    3.3660   -5.1830    0.0000 C   0  0  0  0  0  0  0  0  0  0  0  0
    2.8660   -3.3170    0.0000 C   0  0  0  0  0  0  0  0  0  0  0  0
    3.7321    1.1830    0.0000 C   0  0  2  0  0  0  0  0  0  0  0  0
    3.7321    0.1830    0.0000 C   0  0  0  0  0  0  0  0  0  0  0  0
    3.7321   -1.8170    0.0000 C   0  0  0  0  0  0  0  0  0  0  0  0
    5.4641    2.1830    0.0000 C   0  0  0  0  0  0  0  0  0  0  0  0
    4.5981   -0.3170    0.0000 C   0  0  0  0  0  0  0  0  0  0  0  0
    2.8660   -0.3170    0.0000 C   0  0  0  0  0  0  0  0  0  0  0  0
    4.5981   -1.3170    0.0000 C   0  0  0  0  0  0  0  0  0  0  0  0
    2.8660   -1.3170    0.0000 C   0  0  0  0  0  0  0  0  0  0  0  0
    5.4641    3.1830    0.0000 C   0  0  0  0  0  0  0  0  0  0  0  0
    6.3301    3.6830    0.0000 C   0  0  0  0  0  0  0  0  0  0  0  0
    4.5981    3.6830    0.0000 C   0  0  0  0  0  0  0  0  0  0  0  0
    6.3301    4.6830    0.0000 C   0  0  0  0  0  0  0  0  0  0  0  0
    4.5981    4.6830    0.0000 C   0  0  0  0  0  0  0  0  0  0  0  0
    5.4641    5.1830    0.0000 C   0  0  0  0  0  0  0  0  0  0  0  0
  1  6  1  0  0  0  0 
  1  9  1  0  0  0  0 
  7  2  1  6  0  0  0 
  2 10  1  0  0  0  0 
  3  4  1  0  0  0  0 
  3  5  1  0  0  0  0 
  3  6  1  0  0  0  0 
  4  5  1  0  0  0  0 
  7  8  1  0  0  0  0 
  8 11  1  0  0  0  0 
  8 12  1  0  0  0  0 
  9 13  1  0  0  0  0 
  9 14  1  0  0  0  0 
 10 15  1  0  0  0  0 
 11 13  1  0  0  0  0 
 12 14  1  0  0  0  0 
 15 16  1  0  0  0  0 
 15 17  1  0  0  0  0 
 16 18  1  0  0  0  0 
 17 19  1  0  0  0  0 
 18 20  1  0  0  0  0 
 19 20  1  0  0  0  0 
M  CHG  1   2   1
M  END
> <PUBCHEM_COMPOUND_CID>
36089241

$$$$

  CDK     1223141415

 20 22  0  0  0  0  0  0  0  0999 V2000
    5.4641   -0.8385    0.0000 N   0  0  0  0  0  0  0  0  0  0  0  0
    7.4128   -3.5409    0.0000 N   0  0  0  0  0  0  0  0  0  0  0  0
    6.4347   -3.3330    0.0000 N   0  0  0  0  0  0  0  0  0  0  0  0
    4.5981    0.6615    0.0000 C   0  0  0  0  0  0  0  0  0  0  0  0
    4.5981   -0.3385    0.0000 C   0  0  0  0  0  0  0  0  0  0  0  0
    3.7320    1.1615    0.0000 C   0  0  0  0  0  0  0  0  0  0  0  0
    5.4641    1.1615    0.0000 C   0  0  0  0  0  0  0  0  0  0  0  0
    3.7320    2.1615    0.0000 C   0  0  0  0  0  0  0  0  0  0  0  0
    4.5981    2.6615    0.0000 C   0  0  0  0  0  0  0  0  0  0  0  0
    6.3301   -2.3385    0.0000 C   0  0  0  0  0  0  0  0  0  0  0  0
    5.4641    2.1615    0.0000 C   0  0  0  0  0  0  0  0  0  0  0  0
    5.4641   -1.8385    0.0000 C   0  0  0  0  0  0  0  0  0  0  0  0
    7.8195   -4.4544    0.0000 C   0  0  0  0  0  0  0  0  0  0  0  0
    7.2437   -1.9317    0.0000 C   0  0  0  0  0  0  0  0  0  0  0  0
    7.9128   -2.6749    0.0000 C   0  0  0  0  0  0  0  0  0  0  0  0
    7.2318   -5.2635    0.0000 C   0  0  0  0  0  0  0  0  0  0  0  0
    8.8141   -4.5590    0.0000 C   0  0  0  0  0  0  0  0  0  0  0  0
    7.6385   -6.1770    0.0000 C   0  0  0  0  0  0  0  0  0  0  0  0
    9.2208   -5.4725    0.0000 C   0  0  0  0  0  0  0  0  0  0  0  0
    8.6330   -6.2815    0.0000 C   0  0  0  0  0  0  0  0  0  0  0  0
  1  5  1  0  0  0  0 
  1 12  1  0  0  0  0 
  2  3  1  0  0  0  0 
  2 13  1  0  0  0  0 
  2 15  1  0  0  0  0 
  3 10  1  0  0  0  0 
  4  5  1  0  0  0  0 
  4  6  1  0  0  0  0 
  4  7  1  0  0  0  0 
  6  8  1  0  0  0  0 
  7 11  1  0  0  0  0 
  8  9  1  0  0  0  0 
  9 11  1  0  0  0  0 
 10 12  1  0  0  0  0 
 10 14  1  0  0  0  0 
 13 16  1  0  0  0  0 
 13 17  1  0  0  0  0 
 14 15  1  0  0  0  0 
 16 18  1  0  0  0  0 
 17 19  1  0  0  0  0 
 18 20  1  0  0  0  0 
 19 20  1  0  0  0  0 
M  END
> <PUBCHEM_COMPOUND_CID>
56229473

$$$$

  CDK     1223141415

 20 22  0  0  0  0  0  0  0  0999 V2000
    9.8744    2.1953    0.0000 N   0  0  0  0  0  0  0  0  0  0  0  0
    6.3301    1.0000    0.0000 N   0  0  3  0  0  0  0  0  0  0  0  0
    7.1962    3.5000    0.0000 N   0  0  0  0  0  0  0  0  0  0  0  0
    8.0622    2.0000    0.0000 N   0  0  0  0  0  0  0  0  0  0  0  0
    4.5981   -1.0000    0.0000 N   0  0  0  0  0  0  0  0  0  0  0  0
    6.3301    2.0000    0.0000 C   0  0  3  0  0  0  0  0  0  0  0  0
    7.1962    2.5000    0.0000 C   0  0  0  0  0  0  0  0  0  0  0  0
    5.4641    0.5000    0.0000 C   0  0  0  0  0  0  0  0  0  0  0  0
    8.9282    3.5000    0.0000 C   0  0  0  0  0  0  0  0  0  0  0  0
    8.9282    2.5000    0.0000 C   0  0  0  0  0  0  0  0  0  0  0  0
    9.8744    3.8047    0.0000 C   0  0  0  0  0  0  0  0  0  0  0  0
    8.0622    4.0000    0.0000 C   0  0  0  0  0  0  0  0  0  0  0  0
   10.4580    3.0000    0.0000 C   0  0  0  0  0  0  0  0  0  0  0  0
    5.4641   -0.5000    0.0000 C   0  0  0  0  0  0  0  0  0  0  0  0
    4.5981   -2.0000    0.0000 C   0  0  0  0  0  0  0  0  0  0  0  0
    3.7320   -2.5000    0.0000 C   0  0  0  0  0  0  0  0  0  0  0  0
    5.4641   -2.5000    0.0000 C   0  0  0  0  0  0  0  0  0  0  0  0
    3.7320   -3.5000    0.0000 C   0  0  0  0  0  0  0  0  0  0  0  0
    5.4641   -3.5000    0.0000 C   0  0  0  0  0  0  0  0  0  0  0  0
    4.5981   -4.0000    0.0000 C   0  0  0  0  0  0  0  0  0  0  0  0
  1 10  1  0  0  0  0 
  1 13  1  0  0  0  0 
  2  6  1  0  0  0  0 
  2  8  1  0  0  0  0 
  3  7  1  0  0  0  0 
  3 12  1  0  0  0  0 
  4  7  1  0  0  0  0 
  4 10  1  0  0  0  0 
  5 14  1  0  0  0  0 
  5 15  1  0  0  0  0 
  6  7  1  0  0  0  0 
  8 14  1  0  0  0  0 
  9 10  1  0  0  0  0 
  9 11  1  0  0  0  0 
  9 12  1  0  0  0  0 
 11 13  1  0  0  0  0 
 15 16  1  0  0  0  0 
 15 17  1  0  0  0  0 
 16 18  1  0  0  0  0 
 17 19  1  0  0  0  0 
 18 20  1  0  0  0  0 
 19 20  1  0  0  0  0 
M  ISO  1   1  32
M  END
> <PUBCHEM_COMPOUND_CID>
43009433

$$$$

  CDK     1223141415

 20 22  0  0  0  0  0  0  0  0999 V2000
    8.9757    0.2853    0.0000 N   0  0  0  0  0  0  0  0  0  0  0  0
    8.1667    1.6865    0.0000 N   0  0  0  0  0  0  0  0  0  0  0  0
    7.1962    0.1920    0.0000 N   0  0  0  0  0  0  0  0  0  0  0  0
    6.3301    0.6920    0.0000 N   0  0  0  0  0  0  0  0  0  0  0  0
    9.6448    1.0284    0.0000 C   0  0  2  0  0  0  0  0  0  0  0  0
   10.6394    0.9239    0.0000 C   0  0  0  0  0  0  0  0  0  0  0  0
    9.1448    1.8944    0.0000 C   0  0  0  0  0  0  0  0  0  0  0  0
   11.0461    0.0103    0.0000 C   0  0  0  0  0  0  0  0  0  0  0  0
   11.2272    1.7329    0.0000 C   0  0  0  0  0  0  0  0  0  0  0  0
    8.0622    0.6920    0.0000 C   0  0  0  0  0  0  0  0  0  0  0  0
   12.0406   -0.0942    0.0000 C   0  0  0  0  0  0  0  0  0  0  0  0
   12.2217    1.6284    0.0000 C   0  0  0  0  0  0  0  0  0  0  0  0
   12.6284    0.7148    0.0000 C   0  0  0  0  0  0  0  0  0  0  0  0
    5.4641   -0.8080    0.0000 C   0  0  0  0  0  0  0  0  0  0  0  0
    4.5981   -1.3080    0.0000 C   0  0  0  0  0  0  0  0  0  0  0  0
    6.3301   -1.3080    0.0000 C   0  0  0  0  0  0  0  0  0  0  0  0
    5.4641    0.1920    0.0000 C   0  0  0  0  0  0  0  0  0  0  0  0
    4.5981   -2.3080    0.0000 C   0  0  0  0  0  0  0  0  0  0  0  0
    6.3301   -2.3080    0.0000 C   0  0  0  0  0  0  0  0  0  0  0  0
    5.4641   -2.8080    0.0000 C   0  0  0  0  0  0  0  0  0  0  0  0
  1  5  1  0  0  0  0 
  1 10  1  0  0  0  0 
  2  7  1  0  0  0  0 
  2 10  1  0  0  0  0 
  3  4  1  0  0  0  0 
  3 10  1  0  0  0  0 
  4 17  1  0  0  0  0 
  5  6  1  1  0  0  0 
  5  7  1  0  0  0  0 
  6  8  1  0  0  0  0 
  6  9  1  0  0  0  0 
  8 11  1  0  0  0  0 
  9 12  1  0  0  0  0 
 11 13  1  0  0  0  0 
 12 13  1  0  0  0  0 
 14 15  1  0  0  0  0 
 14 16  1  0  0  0  0 
 14 17  1  0  0  0  0 
 15 18  1  0  0  0  0 
 16 19  1  0  0  0  0 
 18 20  1  0  0  0  0 
 19 20  1  0  0  0  0 
M  ISO  1   1  32
M  END
> <PUBCHEM_COMPOUND_CID>
34637812

$$$$

  CDK     1223141415

 20 22  0  0  0  0  0  0  0  0999 V2000
    5.4641    7.2500    0.0000 C   0  0  0  0  0  0  0  0  0  0  0  0
    5.4641    5.2500    0.0000 C   0  0  0  0  0  0  0  0  0  0  0  0
    4.5981    6.7500    0.0000 C   0  0  0  0  0  0  0  0  0  0  0  0
    6.3301    6.7500    0.0000 C   0  0  0  0  0  0  0  0  0  0  0  0
    4.5981    5.7500    0.0000 C   0  0  0  0  0  0  0  0  0  0  0  0
    6.3301    5.7500    0.0000 C   0  0  0  0  0  0  0  0  0  0  0  0
    5.4641    4.2500    0.0000 C   0  0  0  0  0  0  0  0  0  0  0  0
    4.5981    3.7500    0.0000 C   0  0  0  0  0  0  0  0  0  0  0  0
    6.3301    3.7500    0.0000 C   0  0  0  0  0  0  0  0  0  0  0  0
    4.5981    2.7500    0.0000 C   0  0  0  0  0  0  0  0  0  0  0  0
    6.3301    2.7500    0.0000 C   0  0  0  0  0  0  0  0  0  0  0  0
    5.4641    2.2500    0.0000 C   0  0  0  0  0  0  0  0  0  0  0  0
    5.4641    1.2500    0.0000 C   0  0  0  0  0  0  0  0  0  0  0  0
    5.4641    0.2500    0.0000 C   0  0  0  0  0  0  0  0  0  0  0  0
    5.4641   -0.7500    0.0000 C   0  0  0  0  0  0  0  0  0  0  0  0
    5.4641   -2.7500    0.0000 C   0  0  0  0  0  0  0  0  0  0  0  0
    4.5981   -1.2500    0.0000 C   0  0  0  0  0  0  0  0  0  0  0  0
    6.3301   -1.2500    0.0000 C   0  0  0  0  0  0  0  0  0  0  0  0
    4.5981   -2.2500    0.0000 C   0  0  0  0  0  0  0  0  0  0  0  0
    6.3301   -2.2500    0.0000 C   0  0  0  0  0  0  0  0  0  0  0  0
  1  3  1  0  0  0  0 
  1  4  1  0  0  0  0 
  2  5  1  0  0  0  0 
  2  6  1  0  0  0  0 
  2  7  1  0  0  0  0 
  3  5  1  0  0  0  0 
  4  6  1  0  0  0  0 
  7  8  1  0  0  0  0 
  7  9  1  0  0  0  0 
  8 10  1  0  0  0  0 
  9 11  1  0  0  0  0 
 10 12  1  0  0  0  0 
 11 12  1  0  0  0  0 
 12 13  1  0  0  0  0 
 13 14  1  0  0  0  0 
 14 15  1  0  0  0  0 
 15 17  1  0  0  0  0 
 15 18  1  0  0  0  0 
 16 19  1  0  0  0  0 
 16 20  1  0  0  0  0 
 17 19  1  0  0  0  0 
 18 20  1  0  0  0  0 
M  END
> <PUBCHEM_COMPOUND_CID>
15919642

$$$$
