20230097
  CDK     0104151047

 25 25  0  0  0  0  0  0  0  0999 V2000
    5.4641    1.0950    0.0000 P   0  0  0  0  0  0  0  0  0  0  0  0
    2.8660   -0.4050    0.0000 O   0  0  0  0  0  0  0  0  0  0  0  0
    5.4641    2.0950    0.0000 O   0  0  0  0  0  0  0  0  0  0  0  0
    6.3301    0.5950    0.0000 O   0  0  0  0  0  0  0  0  0  0  0  0
    4.5981    0.5950    0.0000 C   0  0  3  0  0  0  0  0  0  0  0  0
    4.5981   -0.4050    0.0000 C   0  0  0  0  0  0  0  0  0  0  0  0
    3.7320   -0.9050    0.0000 C   0  0  0  0  0  0  0  0  0  0  0  0
    3.7320    1.0950    0.0000 C   0  0  0  0  0  0  0  0  0  0  0  0
    5.4641   -0.9050    0.0000 C   0  0  0  0  0  0  0  0  0  0  0  0
    3.7320   -1.9050    0.0000 C   0  0  0  0  0  0  0  0  0  0  0  0
    5.4641   -1.9050    0.0000 C   0  0  0  0  0  0  0  0  0  0  0  0
    4.5981   -2.4050    0.0000 C   0  0  0  0  0  0  0  0  0  0  0  0
    2.0000   -0.9050    0.0000 C   0  0  0  0  0  0  0  0  0  0  0  0
    4.5981    1.2150    0.0000 H   0  0  0  0  0  0  0  0  0  0  0  0
    4.0420    1.6319    0.0000 H   0  0  0  0  0  0  0  0  0  0  0  0
    3.1951    1.4050    0.0000 H   0  0  0  0  0  0  0  0  0  0  0  0
    3.4220    0.5581    0.0000 H   0  0  0  0  0  0  0  0  0  0  0  0
    6.0010   -0.5950    0.0000 H   0  0  0  0  0  0  0  0  0  0  0  0
    3.1951   -2.2150    0.0000 H   0  0  0  0  0  0  0  0  0  0  0  0
    6.0010   -2.2150    0.0000 H   0  0  0  0  0  0  0  0  0  0  0  0
    4.5981   -3.0250    0.0000 H   0  0  0  0  0  0  0  0  0  0  0  0
    1.6900   -0.3681    0.0000 H   0  0  0  0  0  0  0  0  0  0  0  0
    1.4631   -1.2150    0.0000 H   0  0  0  0  0  0  0  0  0  0  0  0
    2.3100   -1.4419    0.0000 H   0  0  0  0  0  0  0  0  0  0  0  0
    6.0010    2.4050    0.0000 H   0  0  0  0  0  0  0  0  0  0  0  0
  1  3  1  0  0  0  0 
  1  4  2  0  0  0  0 
  1  5  1  0  0  0  0 
  2  7  1  0  0  0  0 
  2 13  1  0  0  0  0 
  3 25  1  0  0  0  0 
  5  6  1  0  0  0  0 
  5  8  1  0  0  0  0 
  5 14  1  0  0  0  0 
  6  7  1  0  0  0  0 
  6  9  2  0  0  0  0 
  7 10  2  0  0  0  0 
  8 15  1  0  0  0  0 
  8 16  1  0  0  0  0 
  8 17  1  0  0  0  0 
  9 11  1  0  0  0  0 
  9 18  1  0  0  0  0 
 10 12  1  0  0  0  0 
 10 19  1  0  0  0  0 
 11 12  2  0  0  0  0 
 11 20  1  0  0  0  0 
 12 21  1  0  0  0  0 
 13 22  1  0  0  0  0 
 13 23  1  0  0  0  0 
 13 24  1  0  0  0  0 
M  CHG  1   1   1
M  END
> <cdk:Title>
20230097

> <cdk:Remark>
null

> <PUBCHEM_COMPOUND_CID>
20230097

> <PUBCHEM_COMPOUND_CANONICALIZED>
1

> <PUBCHEM_CACTVS_COMPLEXITY>
184

> <PUBCHEM_CACTVS_HBOND_ACCEPTOR>
3

> <PUBCHEM_CACTVS_HBOND_DONOR>
1

> <PUBCHEM_CACTVS_ROTATABLE_BOND>
3

> <PUBCHEM_CACTVS_SUBSKEYS>
AAADccBwMAIAAAAAAAAAAAAAAAAAAAAAAAAwAAAAAAAAAAABAAAAGggACCAADASImAIyBoAABBCAQiBCAIACCAAgIAAIiAAGCIgMJiKEMRqAMCAkwBEIqAeAwKAOAAAAAAAIAAAAAAAAABAAAAAAAAAAAA==

> <PUBCHEM_IUPAC_OPENEYE_NAME>
hydroxy-[1-(2-methoxyphenyl)ethyl]-oxo-phosphonium

> <PUBCHEM_IUPAC_CAS_NAME>
hydroxy-[1-(2-methoxyphenyl)ethyl]-oxophosphonium

> <PUBCHEM_IUPAC_NAME>
hydroxy-[1-(2-methoxyphenyl)ethyl]-oxophosphanium

> <PUBCHEM_IUPAC_SYSTEMATIC_NAME>
1-(2-methoxyphenyl)ethyl-oxidanyl-oxidanylidene-phosphanium

> <PUBCHEM_IUPAC_TRADITIONAL_NAME>
hydroxy-keto-[1-(2-methoxyphenyl)ethyl]phosphonium

> <PUBCHEM_IUPAC_INCHI>
InChI=1S/C9H11O3P/c1-7(13(10)11)8-5-3-4-6-9(8)12-2/h3-7H,1-2H3/p+1

> <PUBCHEM_IUPAC_INCHIKEY>
XOITVLYLNRIFRK-UHFFFAOYSA-O

> <PUBCHEM_XLOGP3_AA>
1.2

> <PUBCHEM_EXACT_MASS>
199.052406

> <PUBCHEM_MOLECULAR_FORMULA>
C9H12O3P+

> <PUBCHEM_MOLECULAR_WEIGHT>
199.163542

> <PUBCHEM_OPENEYE_CAN_SMILES>
CC(C1=CC=CC=C1OC)[P+](=O)O

> <PUBCHEM_OPENEYE_ISO_SMILES>
CC(C1=CC=CC=C1OC)[P+](=O)O

> <PUBCHEM_CACTVS_TPSA>
46.5

> <PUBCHEM_MONOISOTOPIC_WEIGHT>
199.052406

> <PUBCHEM_TOTAL_CHARGE>
1

> <PUBCHEM_HEAVY_ATOM_COUNT>
13

> <PUBCHEM_ATOM_DEF_STEREO_COUNT>
0

> <PUBCHEM_ATOM_UDEF_STEREO_COUNT>
1

> <PUBCHEM_BOND_DEF_STEREO_COUNT>
0

> <PUBCHEM_BOND_UDEF_STEREO_COUNT>
0

> <PUBCHEM_ISOTOPIC_ATOM_COUNT>
0

> <PUBCHEM_COMPONENT_COUNT>
1

> <PUBCHEM_CACTVS_TAUTO_COUNT>
1

> <PUBCHEM_COORDINATE_TYPE>
1

> <PUBCHEM_BONDANNOTATIONS>
10  12  8

$$$$
