24731510
  CDK     0202151410

 67 70  0  0  0  0  0  0  0  0999 V2000
    2.7166   -2.0000    0.0000 F   0  0  0  0  0  0  0  0  0  0  0  0
    3.5827   -0.5000    0.0000 F   0  0  0  0  0  0  0  0  0  0  0  0
    7.9128    1.0000    0.0000 O   0  0  0  0  0  0  0  0  0  0  0  0
    4.4487   -2.0000    0.0000 O   0  0  0  0  0  0  0  0  0  0  0  0
    6.1808    1.0000    0.0000 N   0  0  0  0  0  0  0  0  0  0  0  0
    6.1808   -2.0000    0.0000 N   0  0  0  0  0  0  0  0  0  0  0  0
    3.5827    1.5000    0.0000 N   0  0  0  0  0  0  0  0  0  0  0  0
    9.6448    5.0000    0.0000 N   0  0  0  0  0  0  0  0  0  0  0  0
    6.1808    0.0000    0.0000 C   0  0  0  0  0  0  0  0  0  0  0  0
    5.3147   -0.5000    0.0000 C   0  0  0  0  0  0  0  0  0  0  0  0
    7.0468   -0.5000    0.0000 C   0  0  0  0  0  0  0  0  0  0  0  0
    5.3147   -1.5000    0.0000 C   0  0  0  0  0  0  0  0  0  0  0  0
    7.0468   -1.5000    0.0000 C   0  0  0  0  0  0  0  0  0  0  0  0
    5.3147    1.5000    0.0000 C   0  0  0  0  0  0  0  0  0  0  0  0
    4.4487    1.0000    0.0000 C   0  0  0  0  0  0  0  0  0  0  0  0
    3.4782    2.4945    0.0000 C   0  0  0  0  0  0  0  0  0  0  0  0
    2.6691    1.0933    0.0000 C   0  0  0  0  0  0  0  0  0  0  0  0
    2.0000    1.8364    0.0000 C   0  0  0  0  0  0  0  0  0  0  0  0
    2.5000    2.7024    0.0000 C   0  0  0  0  0  0  0  0  0  0  0  0
    6.1808   -3.0000    0.0000 C   0  0  0  0  0  0  0  0  0  0  0  0
    7.0468    1.5000    0.0000 C   0  0  0  0  0  0  0  0  0  0  0  0
    5.3147   -3.5000    0.0000 C   0  0  0  0  0  0  0  0  0  0  0  0
    7.0468    2.5000    0.0000 C   0  0  0  0  0  0  0  0  0  0  0  0
    4.4487   -3.0000    0.0000 C   0  0  0  0  0  0  0  0  0  0  0  0
    5.3147   -4.5000    0.0000 C   0  0  0  0  0  0  0  0  0  0  0  0
    7.9128    3.0000    0.0000 C   0  0  0  0  0  0  0  0  0  0  0  0
    6.1808    3.0000    0.0000 C   0  0  0  0  0  0  0  0  0  0  0  0
    3.5827   -3.5000    0.0000 C   0  0  0  0  0  0  0  0  0  0  0  0
    4.4487   -5.0000    0.0000 C   0  0  0  0  0  0  0  0  0  0  0  0
    3.5827   -4.5000    0.0000 C   0  0  0  0  0  0  0  0  0  0  0  0
    7.9128    4.0000    0.0000 C   0  0  0  0  0  0  0  0  0  0  0  0
    6.1808    4.0000    0.0000 C   0  0  0  0  0  0  0  0  0  0  0  0
    7.0468    4.5000    0.0000 C   0  0  0  0  0  0  0  0  0  0  0  0
    3.5827   -1.5000    0.0000 C   0  0  0  0  0  0  0  0  0  0  0  0
    8.7788    4.5000    0.0000 C   0  0  0  0  0  0  0  0  0  0  0  0
    6.7177    0.3100    0.0000 H   0  0  0  0  0  0  0  0  0  0  0  0
    7.6574   -0.6077    0.0000 H   0  0  0  0  0  0  0  0  0  0  0  0
    7.2588    0.0826    0.0000 H   0  0  0  0  0  0  0  0  0  0  0  0
    5.1027    0.0826    0.0000 H   0  0  0  0  0  0  0  0  0  0  0  0
    4.7042   -0.6077    0.0000 H   0  0  0  0  0  0  0  0  0  0  0  0
    7.2588   -2.0826    0.0000 H   0  0  0  0  0  0  0  0  0  0  0  0
    7.6574   -1.3923    0.0000 H   0  0  0  0  0  0  0  0  0  0  0  0
    4.7042   -1.3923    0.0000 H   0  0  0  0  0  0  0  0  0  0  0  0
    5.1027   -2.0826    0.0000 H   0  0  0  0  0  0  0  0  0  0  0  0
    5.7133    1.9750    0.0000 H   0  0  0  0  0  0  0  0  0  0  0  0
    4.9162    1.9750    0.0000 H   0  0  0  0  0  0  0  0  0  0  0  0
    4.0502    0.5251    0.0000 H   0  0  0  0  0  0  0  0  0  0  0  0
    4.8472    0.5251    0.0000 H   0  0  0  0  0  0  0  0  0  0  0  0
    2.1675    0.7288    0.0000 H   0  0  0  0  0  0  0  0  0  0  0  0
    2.9791    0.5563    0.0000 H   0  0  0  0  0  0  0  0  0  0  0  0
    4.0982    2.4945    0.0000 H   0  0  0  0  0  0  0  0  0  0  0  0
    3.5430    3.1111    0.0000 H   0  0  0  0  0  0  0  0  0  0  0  0
    1.4984    2.2008    0.0000 H   0  0  0  0  0  0  0  0  0  0  0  0
    1.5851    1.3757    0.0000 H   0  0  0  0  0  0  0  0  0  0  0  0
    2.6916    3.2921    0.0000 H   0  0  0  0  0  0  0  0  0  0  0  0
    1.9336    2.9546    0.0000 H   0  0  0  0  0  0  0  0  0  0  0  0
    6.3928   -3.5826    0.0000 H   0  0  0  0  0  0  0  0  0  0  0  0
    6.7913   -2.8923    0.0000 H   0  0  0  0  0  0  0  0  0  0  0  0
    5.8517   -4.8100    0.0000 H   0  0  0  0  0  0  0  0  0  0  0  0
    8.4497    2.6900    0.0000 H   0  0  0  0  0  0  0  0  0  0  0  0
    5.6438    2.6900    0.0000 H   0  0  0  0  0  0  0  0  0  0  0  0
    3.0457   -3.1900    0.0000 H   0  0  0  0  0  0  0  0  0  0  0  0
    4.4487   -5.6200    0.0000 H   0  0  0  0  0  0  0  0  0  0  0  0
    3.0457   -4.8100    0.0000 H   0  0  0  0  0  0  0  0  0  0  0  0
    5.6438    4.3100    0.0000 H   0  0  0  0  0  0  0  0  0  0  0  0
    7.0468    5.1200    0.0000 H   0  0  0  0  0  0  0  0  0  0  0  0
    4.1196   -1.1900    0.0000 H   0  0  0  0  0  0  0  0  0  0  0  0
  1 34  1  0  0  0  0 
  2 34  1  0  0  0  0 
  3 21  2  0  0  0  0 
  4 24  1  0  0  0  0 
  4 34  1  0  0  0  0 
  5  9  1  0  0  0  0 
  5 14  1  0  0  0  0 
  5 21  1  0  0  0  0 
  6 12  1  0  0  0  0 
  6 13  1  0  0  0  0 
  6 20  1  0  0  0  0 
  7 15  1  0  0  0  0 
  7 16  1  0  0  0  0 
  7 17  1  0  0  0  0 
  8 35  3  0  0  0  0 
  9 10  1  0  0  0  0 
  9 11  1  0  0  0  0 
  9 36  1  0  0  0  0 
 10 12  1  0  0  0  0 
 10 39  1  0  0  0  0 
 10 40  1  0  0  0  0 
 11 13  1  0  0  0  0 
 11 37  1  0  0  0  0 
 11 38  1  0  0  0  0 
 12 43  1  0  0  0  0 
 12 44  1  0  0  0  0 
 13 41  1  0  0  0  0 
 13 42  1  0  0  0  0 
 14 15  1  0  0  0  0 
 14 45  1  0  0  0  0 
 14 46  1  0  0  0  0 
 15 47  1  0  0  0  0 
 15 48  1  0  0  0  0 
 16 19  1  0  0  0  0 
 16 51  1  0  0  0  0 
 16 52  1  0  0  0  0 
 17 18  1  0  0  0  0 
 17 49  1  0  0  0  0 
 17 50  1  0  0  0  0 
 18 19  1  0  0  0  0 
 18 53  1  0  0  0  0 
 18 54  1  0  0  0  0 
 19 55  1  0  0  0  0 
 19 56  1  0  0  0  0 
 20 22  1  0  0  0  0 
 20 57  1  0  0  0  0 
 20 58  1  0  0  0  0 
 21 23  1  0  0  0  0 
 22 24  1  0  0  0  0 
 22 25  2  0  0  0  0 
 23 26  1  0  0  0  0 
 23 27  2  0  0  0  0 
 24 28  2  0  0  0  0 
 25 29  1  0  0  0  0 
 25 59  1  0  0  0  0 
 26 31  2  0  0  0  0 
 26 60  1  0  0  0  0 
 27 32  1  0  0  0  0 
 27 61  1  0  0  0  0 
 28 30  1  0  0  0  0 
 28 62  1  0  0  0  0 
 29 30  2  0  0  0  0 
 29 63  1  0  0  0  0 
 30 64  1  0  0  0  0 
 31 33  1  0  0  0  0 
 31 35  1  0  0  0  0 
 32 33  2  0  0  0  0 
 32 65  1  0  0  0  0 
 33 66  1  0  0  0  0 
 34 67  1  0  0  0  0 
M  END
> <cdk:Title>
24731510

> <cdk:Remark>
null

> <PUBCHEM_COMPOUND_CID>
24731510

> <PUBCHEM_COMPOUND_CANONICALIZED>
1

> <PUBCHEM_CACTVS_COMPLEXITY>
715

> <PUBCHEM_CACTVS_HBOND_ACCEPTOR>
7

> <PUBCHEM_CACTVS_HBOND_DONOR>
0

> <PUBCHEM_CACTVS_ROTATABLE_BOND>
9

> <PUBCHEM_CACTVS_SUBSKEYS>
AAADcfB7sYAAAAAAAAAAAAAAAAAAAWAAAAA8YIAAAAAAAAABQAAAHwAAAAAADCzBmBYwBoMABACYBiFSEACiCAAkIAAIiAEODMgM5jKE9RuUMShmxhGIqY+YyGCOAAACAAAIAAAAAAQAABAAAAAAAAAAAA==

> <PUBCHEM_IUPAC_OPENEYE_NAME>
3-cyano-N-[1-[[2-(difluoromethoxy)phenyl]methyl]-4-piperidyl]-N-(2-pyrrolidin-1-ylethyl)benzamide

> <PUBCHEM_IUPAC_CAS_NAME>
3-cyano-N-[1-[[2-(difluoromethoxy)phenyl]methyl]-4-piperidinyl]-N-[2-(1-pyrrolidinyl)ethyl]benzamide

> <PUBCHEM_IUPAC_NAME>
3-cyano-N-[1-[[2-(difluoromethoxy)phenyl]methyl]piperidin-4-yl]-N-(2-pyrrolidin-1-ylethyl)benzamide

> <PUBCHEM_IUPAC_SYSTEMATIC_NAME>
N-[1-[[2-[bis(fluoranyl)methoxy]phenyl]methyl]piperidin-4-yl]-3-cyano-N-(2-pyrrolidin-1-ylethyl)benzamide

> <PUBCHEM_IUPAC_TRADITIONAL_NAME>
3-cyano-N-[1-[2-(difluoromethoxy)benzyl]-4-piperidyl]-N-(2-pyrrolidinoethyl)benzamide

> <PUBCHEM_IUPAC_INCHI>
InChI=1S/C27H32F2N4O2/c28-27(29)35-25-9-2-1-7-23(25)20-32-14-10-24(11-15-32)33(17-16-31-12-3-4-13-31)26(34)22-8-5-6-21(18-22)19-30/h1-2,5-9,18,24,27H,3-4,10-17,20H2

> <PUBCHEM_IUPAC_INCHIKEY>
ODUPKVCIQMKPGK-UHFFFAOYSA-N

> <PUBCHEM_XLOGP3_AA>
4.6

> <PUBCHEM_EXACT_MASS>
482.249333

> <PUBCHEM_MOLECULAR_FORMULA>
C27H32F2N4O2

> <PUBCHEM_MOLECULAR_WEIGHT>
482.565386

> <PUBCHEM_OPENEYE_CAN_SMILES>
C1CCN(C1)CCN(C2CCN(CC2)CC3=CC=CC=C3OC(F)F)C(=O)C4=CC=CC(=C4)C#N

> <PUBCHEM_OPENEYE_ISO_SMILES>
C1CCN(C1)CCN(C2CCN(CC2)CC3=CC=CC=C3OC(F)F)C(=O)C4=CC=CC(=C4)C#N

> <PUBCHEM_CACTVS_TPSA>
59.8

> <PUBCHEM_MONOISOTOPIC_WEIGHT>
482.249333

> <PUBCHEM_TOTAL_CHARGE>
0

> <PUBCHEM_HEAVY_ATOM_COUNT>
35

> <PUBCHEM_ATOM_DEF_STEREO_COUNT>
0

> <PUBCHEM_ATOM_UDEF_STEREO_COUNT>
0

> <PUBCHEM_BOND_DEF_STEREO_COUNT>
0

> <PUBCHEM_BOND_UDEF_STEREO_COUNT>
0

> <PUBCHEM_ISOTOPIC_ATOM_COUNT>
0

> <PUBCHEM_COMPONENT_COUNT>
1

> <PUBCHEM_CACTVS_TAUTO_COUNT>
1

> <PUBCHEM_COORDINATE_TYPE>
1

> <PUBCHEM_BONDANNOTATIONS>
22  24  8

$$$$
