2564065
  CDK     1229141516

 38 38  0  0  0  0  0  0  0  0999 V2000
    5.4641    1.0000    0.0000 O   0  0  0  0  0  0  0  0  0  0  0  0
    6.3301    3.5000    0.0000 O   0  0  0  0  0  0  0  0  0  0  0  0
    5.4641   -1.0000    0.0000 O   0  0  0  0  0  0  0  0  0  0  0  0
    4.5981    2.5000    0.0000 O   0  0  0  0  0  0  0  0  0  0  0  0
    3.7320   -1.0000    0.0000 N   0  0  0  0  0  0  0  0  0  0  0  0
    2.8660   -2.5000    0.0000 C   0  0  0  0  0  0  0  0  0  0  0  0
    3.7320   -2.0000    0.0000 C   0  0  0  0  0  0  0  0  0  0  0  0
    3.7320   -4.0000    0.0000 C   0  0  0  0  0  0  0  0  0  0  0  0
    2.8660   -3.5000    0.0000 C   0  0  0  0  0  0  0  0  0  0  0  0
    4.5981   -2.5000    0.0000 C   0  0  0  0  0  0  0  0  0  0  0  0
    4.5981   -3.5000    0.0000 C   0  0  0  0  0  0  0  0  0  0  0  0
    2.0000   -2.0000    0.0000 C   0  0  0  0  0  0  0  0  0  0  0  0
    3.7320   -5.0000    0.0000 C   0  0  0  0  0  0  0  0  0  0  0  0
    4.5981   -0.5000    0.0000 C   0  0  0  0  0  0  0  0  0  0  0  0
    4.5981    0.5000    0.0000 C   0  0  0  0  0  0  0  0  0  0  0  0
    6.3301    2.5000    0.0000 C   0  0  0  0  0  0  0  0  0  0  0  0
    5.4641    2.0000    0.0000 C   0  0  0  0  0  0  0  0  0  0  0  0
    7.1962    4.0000    0.0000 C   0  0  0  0  0  0  0  0  0  0  0  0
    7.1962    5.0000    0.0000 C   0  0  0  0  0  0  0  0  0  0  0  0
    2.3291   -3.8100    0.0000 H   0  0  0  0  0  0  0  0  0  0  0  0
    5.1350   -2.1900    0.0000 H   0  0  0  0  0  0  0  0  0  0  0  0
    5.1350   -3.8100    0.0000 H   0  0  0  0  0  0  0  0  0  0  0  0
    3.1951   -0.6900    0.0000 H   0  0  0  0  0  0  0  0  0  0  0  0
    2.3100   -1.4631    0.0000 H   0  0  0  0  0  0  0  0  0  0  0  0
    1.4631   -1.6900    0.0000 H   0  0  0  0  0  0  0  0  0  0  0  0
    1.6900   -2.5369    0.0000 H   0  0  0  0  0  0  0  0  0  0  0  0
    3.1120   -5.0000    0.0000 H   0  0  0  0  0  0  0  0  0  0  0  0
    3.7320   -5.6200    0.0000 H   0  0  0  0  0  0  0  0  0  0  0  0
    4.3520   -5.0000    0.0000 H   0  0  0  0  0  0  0  0  0  0  0  0
    4.3860    1.0826    0.0000 H   0  0  0  0  0  0  0  0  0  0  0  0
    3.9875    0.3923    0.0000 H   0  0  0  0  0  0  0  0  0  0  0  0
    6.5422    1.9174    0.0000 H   0  0  0  0  0  0  0  0  0  0  0  0
    6.9407    2.6077    0.0000 H   0  0  0  0  0  0  0  0  0  0  0  0
    7.4082    3.4174    0.0000 H   0  0  0  0  0  0  0  0  0  0  0  0
    7.8067    4.1077    0.0000 H   0  0  0  0  0  0  0  0  0  0  0  0
    7.8162    5.0000    0.0000 H   0  0  0  0  0  0  0  0  0  0  0  0
    7.1962    5.6200    0.0000 H   0  0  0  0  0  0  0  0  0  0  0  0
    6.5762    5.0000    0.0000 H   0  0  0  0  0  0  0  0  0  0  0  0
  1 15  1  0  0  0  0 
  1 17  1  0  0  0  0 
  2 16  1  0  0  0  0 
  2 18  1  0  0  0  0 
  3 14  2  0  0  0  0 
  4 17  2  0  0  0  0 
  5  7  1  0  0  0  0 
  5 14  1  0  0  0  0 
  5 23  1  0  0  0  0 
  6  7  2  0  0  0  0 
  6  9  1  0  0  0  0 
  6 12  1  0  0  0  0 
  7 10  1  0  0  0  0 
  8  9  2  0  0  0  0 
  8 11  1  0  0  0  0 
  8 13  1  0  0  0  0 
  9 20  1  0  0  0  0 
 10 11  2  0  0  0  0 
 10 21  1  0  0  0  0 
 11 22  1  0  0  0  0 
 12 24  1  0  0  0  0 
 12 25  1  0  0  0  0 
 12 26  1  0  0  0  0 
 13 27  1  0  0  0  0 
 13 28  1  0  0  0  0 
 13 29  1  0  0  0  0 
 14 15  1  0  0  0  0 
 15 30  1  0  0  0  0 
 15 31  1  0  0  0  0 
 16 17  1  0  0  0  0 
 16 32  1  0  0  0  0 
 16 33  1  0  0  0  0 
 18 19  1  0  0  0  0 
 18 34  1  0  0  0  0 
 18 35  1  0  0  0  0 
 19 36  1  0  0  0  0 
 19 37  1  0  0  0  0 
 19 38  1  0  0  0  0 
M  END
> <cdk:Title>
2564065

> <cdk:Remark>
null

> <PUBCHEM_COMPOUND_CID>
2564065

> <PUBCHEM_COMPOUND_CANONICALIZED>
1

> <PUBCHEM_CACTVS_COMPLEXITY>
306

> <PUBCHEM_CACTVS_HBOND_ACCEPTOR>
4

> <PUBCHEM_CACTVS_HBOND_DONOR>
1

> <PUBCHEM_CACTVS_ROTATABLE_BOND>
7

> <PUBCHEM_CACTVS_SUBSKEYS>
AAADceByOAAAAAAAAAAAAAAAAAAAAAAAAAAwAAAAAAAAAAABAAAAHgAQAAAADAihmAIyyILABACIAiXSWAKCAAAhAgAIiABAZIgLICLAkZWHIAhglADayAcQgEAOCAACAAACAAAQAAQAAAQAAAAAAAAAAA==

> <PUBCHEM_IUPAC_OPENEYE_NAME>
[2-(2,4-dimethylanilino)-2-oxo-ethyl] 2-ethoxyacetate

> <PUBCHEM_IUPAC_CAS_NAME>
2-ethoxyacetic acid [2-(2,4-dimethylanilino)-2-oxoethyl] ester

> <PUBCHEM_IUPAC_NAME>
[2-(2,4-dimethylanilino)-2-oxoethyl] 2-ethoxyacetate

> <PUBCHEM_IUPAC_SYSTEMATIC_NAME>
[2-[(2,4-dimethylphenyl)amino]-2-oxidanylidene-ethyl] 2-ethoxyethanoate

> <PUBCHEM_IUPAC_TRADITIONAL_NAME>
2-ethoxyacetic acid [2-(2,4-dimethylanilino)-2-keto-ethyl] ester

> <PUBCHEM_IUPAC_INCHI>
InChI=1S/C14H19NO4/c1-4-18-9-14(17)19-8-13(16)15-12-6-5-10(2)7-11(12)3/h5-7H,4,8-9H2,1-3H3,(H,15,16)

> <PUBCHEM_IUPAC_INCHIKEY>
GATATIZZHZDQDK-UHFFFAOYSA-N

> <PUBCHEM_XLOGP3>
1.6

> <PUBCHEM_EXACT_MASS>
265.131408

> <PUBCHEM_MOLECULAR_FORMULA>
C14H19NO4

> <PUBCHEM_MOLECULAR_WEIGHT>
265.30496

> <PUBCHEM_OPENEYE_CAN_SMILES>
CCOCC(=O)OCC(=O)NC1=C(C=C(C=C1)C)C

> <PUBCHEM_OPENEYE_ISO_SMILES>
CCOCC(=O)OCC(=O)NC1=C(C=C(C=C1)C)C

> <PUBCHEM_CACTVS_TPSA>
64.6

> <PUBCHEM_MONOISOTOPIC_WEIGHT>
265.131408

> <PUBCHEM_TOTAL_CHARGE>
0

> <PUBCHEM_HEAVY_ATOM_COUNT>
19

> <PUBCHEM_ATOM_DEF_STEREO_COUNT>
0

> <PUBCHEM_ATOM_UDEF_STEREO_COUNT>
0

> <PUBCHEM_BOND_DEF_STEREO_COUNT>
0

> <PUBCHEM_BOND_UDEF_STEREO_COUNT>
0

> <PUBCHEM_ISOTOPIC_ATOM_COUNT>
0

> <PUBCHEM_COMPONENT_COUNT>
1

> <PUBCHEM_CACTVS_TAUTO_COUNT>
3

> <PUBCHEM_COORDINATE_TYPE>
1

> <PUBCHEM_BONDANNOTATIONS>
10  11  8

$$$$
60886851
  CDK     1229141516

 38 38  0  0  0  0  0  0  0  0999 V2000
    3.7320   -0.0600    0.0000 O   0  0  0  0  0  0  0  0  0  0  0  0
    7.1962    2.9400    0.0000 O   0  0  0  0  0  0  0  0  0  0  0  0
    7.1962   -2.0600    0.0000 O   0  0  0  0  0  0  0  0  0  0  0  0
    5.4641    0.9400    0.0000 N   0  0  0  0  0  0  0  0  0  0  0  0
    6.3301    1.4400    0.0000 C   0  0  0  0  0  0  0  0  0  0  0  0
    6.3301    2.4400    0.0000 C   0  0  3  0  0  0  0  0  0  0  0  0
    5.4641   -0.0600    0.0000 C   0  0  0  0  0  0  0  0  0  0  0  0
    4.5981   -0.5600    0.0000 C   0  0  0  0  0  0  0  0  0  0  0  0
    6.3301   -0.5600    0.0000 C   0  0  0  0  0  0  0  0  0  0  0  0
    5.4641    2.9400    0.0000 C   0  0  0  0  0  0  0  0  0  0  0  0
    6.3301   -1.5600    0.0000 C   0  0  0  0  0  0  0  0  0  0  0  0
    4.5981   -1.5600    0.0000 C   0  0  0  0  0  0  0  0  0  0  0  0
    5.4641   -2.0600    0.0000 C   0  0  0  0  0  0  0  0  0  0  0  0
    2.8660   -0.5600    0.0000 C   0  0  0  0  0  0  0  0  0  0  0  0
    7.1962   -3.0600    0.0000 C   0  0  0  0  0  0  0  0  0  0  0  0
    2.0000   -0.0600    0.0000 C   0  0  0  0  0  0  0  0  0  0  0  0
    8.0622   -3.5600    0.0000 C   0  0  0  0  0  0  0  0  0  0  0  0
    6.5422    0.8574    0.0000 H   0  0  0  0  0  0  0  0  0  0  0  0
    6.9407    1.5477    0.0000 H   0  0  0  0  0  0  0  0  0  0  0  0
    6.8671    2.1300    0.0000 H   0  0  0  0  0  0  0  0  0  0  0  0
    4.9272    1.2500    0.0000 H   0  0  0  0  0  0  0  0  0  0  0  0
    6.8671   -0.2500    0.0000 H   0  0  0  0  0  0  0  0  0  0  0  0
    5.7741    3.4769    0.0000 H   0  0  0  0  0  0  0  0  0  0  0  0
    4.9272    3.2500    0.0000 H   0  0  0  0  0  0  0  0  0  0  0  0
    5.1541    2.4031    0.0000 H   0  0  0  0  0  0  0  0  0  0  0  0
    4.0611   -1.8700    0.0000 H   0  0  0  0  0  0  0  0  0  0  0  0
    5.4641   -2.6800    0.0000 H   0  0  0  0  0  0  0  0  0  0  0  0
    2.4675   -1.0350    0.0000 H   0  0  0  0  0  0  0  0  0  0  0  0
    3.2646   -1.0350    0.0000 H   0  0  0  0  0  0  0  0  0  0  0  0
    7.1962    3.5600    0.0000 H   0  0  0  0  0  0  0  0  0  0  0  0
    6.5856   -2.9523    0.0000 H   0  0  0  0  0  0  0  0  0  0  0  0
    6.9841   -3.6426    0.0000 H   0  0  0  0  0  0  0  0  0  0  0  0
    2.3100    0.4769    0.0000 H   0  0  0  0  0  0  0  0  0  0  0  0
    1.4631    0.2500    0.0000 H   0  0  0  0  0  0  0  0  0  0  0  0
    1.6900   -0.5969    0.0000 H   0  0  0  0  0  0  0  0  0  0  0  0
    7.7522   -4.0969    0.0000 H   0  0  0  0  0  0  0  0  0  0  0  0
    8.5991   -3.8700    0.0000 H   0  0  0  0  0  0  0  0  0  0  0  0
    8.3722   -3.0231    0.0000 H   0  0  0  0  0  0  0  0  0  0  0  0
  1  8  1  0  0  0  0 
  1 14  1  0  0  0  0 
  2  6  1  0  0  0  0 
  2 30  1  0  0  0  0 
  3 11  1  0  0  0  0 
  3 15  1  0  0  0  0 
  4  5  1  0  0  0  0 
  4  7  1  0  0  0  0 
  4 21  1  0  0  0  0 
  5  6  1  0  0  0  0 
  5 18  1  0  0  0  0 
  5 19  1  0  0  0  0 
  6 10  1  0  0  0  0 
  6 20  1  0  0  0  0 
  7  8  2  0  0  0  0 
  7  9  1  0  0  0  0 
  8 12  1  0  0  0  0 
  9 11  2  0  0  0  0 
  9 22  1  0  0  0  0 
 10 23  1  0  0  0  0 
 10 24  1  0  0  0  0 
 10 25  1  0  0  0  0 
 11 13  1  0  0  0  0 
 12 13  2  0  0  0  0 
 12 26  1  0  0  0  0 
 13 27  1  0  0  0  0 
 14 16  1  0  0  0  0 
 14 28  1  0  0  0  0 
 14 29  1  0  0  0  0 
 15 17  1  0  0  0  0 
 15 31  1  0  0  0  0 
 15 32  1  0  0  0  0 
 16 33  1  0  0  0  0 
 16 34  1  0  0  0  0 
 16 35  1  0  0  0  0 
 17 36  1  0  0  0  0 
 17 37  1  0  0  0  0 
 17 38  1  0  0  0  0 
M  END
> <cdk:Title>
60886851

> <cdk:Remark>
null

> <PUBCHEM_COMPOUND_CID>
60886851

> <PUBCHEM_COMPOUND_CANONICALIZED>
1

> <PUBCHEM_CACTVS_COMPLEXITY>
201

> <PUBCHEM_CACTVS_HBOND_ACCEPTOR>
4

> <PUBCHEM_CACTVS_HBOND_DONOR>
2

> <PUBCHEM_CACTVS_ROTATABLE_BOND>
7

> <PUBCHEM_CACTVS_SUBSKEYS>
AAADceByMAAAAAAAAAAAAAAAAAAAAAAAAAAwAAAAAAAAAAABAAAAHgAQCAAACBzhkAYyxoLABgCAACRCQACCCAAhIgAIiIAPbIgONiLEsZuHOCjm0BnY6AfQUAMAAQAAAgAAEAACAAAEAAAgAAAAAAAAAA==

> <PUBCHEM_IUPAC_OPENEYE_NAME>
1-(2,5-diethoxyanilino)propan-2-ol

> <PUBCHEM_IUPAC_CAS_NAME>
1-(2,5-diethoxyanilino)-2-propanol

> <PUBCHEM_IUPAC_NAME>
1-(2,5-diethoxyanilino)propan-2-ol

> <PUBCHEM_IUPAC_SYSTEMATIC_NAME>
1-[(2,5-diethoxyphenyl)amino]propan-2-ol

> <PUBCHEM_IUPAC_TRADITIONAL_NAME>
1-(2,5-diethoxyanilino)propan-2-ol

> <PUBCHEM_IUPAC_INCHI>
InChI=1S/C13H21NO3/c1-4-16-11-6-7-13(17-5-2)12(8-11)14-9-10(3)15/h6-8,10,14-15H,4-5,9H2,1-3H3

> <PUBCHEM_IUPAC_INCHIKEY>
VAMOAKRAAJNCIO-UHFFFAOYSA-N

> <PUBCHEM_XLOGP3_AA>
2.3

> <PUBCHEM_EXACT_MASS>
239.152144

> <PUBCHEM_MOLECULAR_FORMULA>
C13H21NO3

> <PUBCHEM_MOLECULAR_WEIGHT>
239.31074

> <PUBCHEM_OPENEYE_CAN_SMILES>
CCOC1=CC(=C(C=C1)OCC)NCC(C)O

> <PUBCHEM_OPENEYE_ISO_SMILES>
CCOC1=CC(=C(C=C1)OCC)NCC(C)O

> <PUBCHEM_CACTVS_TPSA>
50.7

> <PUBCHEM_MONOISOTOPIC_WEIGHT>
239.152144

> <PUBCHEM_TOTAL_CHARGE>
0

> <PUBCHEM_HEAVY_ATOM_COUNT>
17

> <PUBCHEM_ATOM_DEF_STEREO_COUNT>
0

> <PUBCHEM_ATOM_UDEF_STEREO_COUNT>
1

> <PUBCHEM_BOND_DEF_STEREO_COUNT>
0

> <PUBCHEM_BOND_UDEF_STEREO_COUNT>
0

> <PUBCHEM_ISOTOPIC_ATOM_COUNT>
0

> <PUBCHEM_COMPONENT_COUNT>
1

> <PUBCHEM_CACTVS_TAUTO_COUNT>
1

> <PUBCHEM_COORDINATE_TYPE>
1

> <PUBCHEM_BONDANNOTATIONS>
11  13  8

$$$$
63886761
  CDK     1229141516

 39 39  0  0  0  0  0  0  0  0999 V2000
    2.0000   -0.5600    0.0000 Cl  0  0  0  0  0  0  0  0  0  0  0  0
    3.7320    0.4400    0.0000 S   0  0  0  0  0  0  0  0  0  0  0  0
    4.7320    0.4400    0.0000 O   0  0  0  0  0  0  0  0  0  0  0  0
    2.7320    0.4400    0.0000 O   0  0  0  0  0  0  0  0  0  0  0  0
    4.5981   -4.0600    0.0000 O   0  0  0  0  0  0  0  0  0  0  0  0
    2.8660   -4.0600    0.0000 O   0  0  0  0  0  0  0  0  0  0  0  0
    3.7320    1.4400    0.0000 N   0  0  0  0  0  0  0  0  0  0  0  0
    3.7320    3.4400    0.0000 N   0  0  0  0  0  0  0  0  0  0  0  0
    3.7320   -3.5600    0.0000 N   0  0  0  0  0  0  0  0  0  0  0  0
    4.5981    1.9400    0.0000 C   0  0  3  0  0  0  0  0  0  0  0  0
    5.4641    1.4400    0.0000 C   0  0  0  0  0  0  0  0  0  0  0  0
    6.3301    1.9400    0.0000 C   0  0  0  0  0  0  0  0  0  0  0  0
    4.5981    2.9400    0.0000 C   0  0  0  0  0  0  0  0  0  0  0  0
    7.1962    1.4400    0.0000 C   0  0  0  0  0  0  0  0  0  0  0  0
    6.3301    2.9400    0.0000 C   0  0  0  0  0  0  0  0  0  0  0  0
    3.7320   -0.5600    0.0000 C   0  0  0  0  0  0  0  0  0  0  0  0
    2.8660   -1.0600    0.0000 C   0  0  0  0  0  0  0  0  0  0  0  0
    4.5981   -1.0600    0.0000 C   0  0  0  0  0  0  0  0  0  0  0  0
    2.8660   -2.0600    0.0000 C   0  0  0  0  0  0  0  0  0  0  0  0
    4.5981   -2.0600    0.0000 C   0  0  0  0  0  0  0  0  0  0  0  0
    3.7320   -2.5600    0.0000 C   0  0  0  0  0  0  0  0  0  0  0  0
    4.5981    1.3200    0.0000 H   0  0  0  0  0  0  0  0  0  0  0  0
    5.0656    0.9651    0.0000 H   0  0  0  0  0  0  0  0  0  0  0  0
    5.8626    0.9651    0.0000 H   0  0  0  0  0  0  0  0  0  0  0  0
    6.8671    2.2500    0.0000 H   0  0  0  0  0  0  0  0  0  0  0  0
    5.2087    2.8323    0.0000 H   0  0  0  0  0  0  0  0  0  0  0  0
    4.8101    3.5226    0.0000 H   0  0  0  0  0  0  0  0  0  0  0  0
    3.1951    1.7500    0.0000 H   0  0  0  0  0  0  0  0  0  0  0  0
    6.9501    2.9400    0.0000 H   0  0  0  0  0  0  0  0  0  0  0  0
    6.8862    0.9031    0.0000 H   0  0  0  0  0  0  0  0  0  0  0  0
    7.7331    1.1300    0.0000 H   0  0  0  0  0  0  0  0  0  0  0  0
    7.5062    1.9769    0.0000 H   0  0  0  0  0  0  0  0  0  0  0  0
    6.3301    3.5600    0.0000 H   0  0  0  0  0  0  0  0  0  0  0  0
    5.7101    2.9400    0.0000 H   0  0  0  0  0  0  0  0  0  0  0  0
    3.7320    4.0600    0.0000 H   0  0  0  0  0  0  0  0  0  0  0  0
    3.1951    3.1300    0.0000 H   0  0  0  0  0  0  0  0  0  0  0  0
    5.1350   -0.7500    0.0000 H   0  0  0  0  0  0  0  0  0  0  0  0
    2.3291   -2.3700    0.0000 H   0  0  0  0  0  0  0  0  0  0  0  0
    5.1350   -2.3700    0.0000 H   0  0  0  0  0  0  0  0  0  0  0  0
  1 17  1  0  0  0  0 
  2  3  2  0  0  0  0 
  2  4  2  0  0  0  0 
  2  7  1  0  0  0  0 
  2 16  1  0  0  0  0 
  5  9  1  0  0  0  0 
  6  9  2  0  0  0  0 
  7 10  1  0  0  0  0 
  7 28  1  0  0  0  0 
  8 13  1  0  0  0  0 
  8 35  1  0  0  0  0 
  8 36  1  0  0  0  0 
  9 21  1  0  0  0  0 
 10 11  1  0  0  0  0 
 10 13  1  0  0  0  0 
 10 22  1  0  0  0  0 
 11 12  1  0  0  0  0 
 11 23  1  0  0  0  0 
 11 24  1  0  0  0  0 
 12 14  1  0  0  0  0 
 12 15  1  0  0  0  0 
 12 25  1  0  0  0  0 
 13 26  1  0  0  0  0 
 13 27  1  0  0  0  0 
 14 30  1  0  0  0  0 
 14 31  1  0  0  0  0 
 14 32  1  0  0  0  0 
 15 29  1  0  0  0  0 
 15 33  1  0  0  0  0 
 15 34  1  0  0  0  0 
 16 17  2  0  0  0  0 
 16 18  1  0  0  0  0 
 17 19  1  0  0  0  0 
 18 20  2  0  0  0  0 
 18 37  1  0  0  0  0 
 19 21  2  0  0  0  0 
 19 38  1  0  0  0  0 
 20 21  1  0  0  0  0 
 20 39  1  0  0  0  0 
M  CHG  1   5  -1
M  CHG  1   9   1
M  END
> <cdk:Title>
63886761

> <cdk:Remark>
null

> <PUBCHEM_COMPOUND_CID>
63886761

> <PUBCHEM_COMPOUND_CANONICALIZED>
1

> <PUBCHEM_CACTVS_COMPLEXITY>
446

> <PUBCHEM_CACTVS_HBOND_ACCEPTOR>
6

> <PUBCHEM_CACTVS_HBOND_DONOR>
2

> <PUBCHEM_CACTVS_ROTATABLE_BOND>
6

> <PUBCHEM_CACTVS_SUBSKEYS>
AAADceBzOABEAAAAAAAAAAAAAAAAAAAAAAAwAAAAAAAAAAABAAAAHAYUQAAADSrBUCQywYBQQAKBACRCQ3DCABAgBwAoiJgAZooIYCKBk5GAIABgkAAIyAcQAAAMAAQAAAIAAIAACAAABAABAAAAAAAAAA==

> <PUBCHEM_IUPAC_OPENEYE_NAME>
N-[1-(aminomethyl)-3-methyl-butyl]-2-chloro-4-nitro-benzenesulfonamide

> <PUBCHEM_IUPAC_CAS_NAME>
N-(1-amino-4-methylpentan-2-yl)-2-chloro-4-nitrobenzenesulfonamide

> <PUBCHEM_IUPAC_NAME>
N-(1-amino-4-methylpentan-2-yl)-2-chloro-4-nitrobenzenesulfonamide

> <PUBCHEM_IUPAC_SYSTEMATIC_NAME>
N-(1-azanyl-4-methyl-pentan-2-yl)-2-chloranyl-4-nitro-benzenesulfonamide

> <PUBCHEM_IUPAC_TRADITIONAL_NAME>
N-[1-(aminomethyl)-3-methyl-butyl]-2-chloro-4-nitro-benzenesulfonamide

> <PUBCHEM_IUPAC_INCHI>
InChI=1S/C12H18ClN3O4S/c1-8(2)5-9(7-14)15-21(19,20)12-4-3-10(16(17)18)6-11(12)13/h3-4,6,8-9,15H,5,7,14H2,1-2H3

> <PUBCHEM_IUPAC_INCHIKEY>
FBQMXZNHSNRWPH-UHFFFAOYSA-N

> <PUBCHEM_XLOGP3_AA>
2.2

> <PUBCHEM_EXACT_MASS>
335.070655

> <PUBCHEM_MOLECULAR_FORMULA>
C12H18ClN3O4S

> <PUBCHEM_MOLECULAR_WEIGHT>
335.80702

> <PUBCHEM_OPENEYE_CAN_SMILES>
CC(C)CC(CN)NS(=O)(=O)C1=C(C=C(C=C1)[N+](=O)[O-])Cl

> <PUBCHEM_OPENEYE_ISO_SMILES>
CC(C)CC(CN)NS(=O)(=O)C1=C(C=C(C=C1)[N+](=O)[O-])Cl

> <PUBCHEM_CACTVS_TPSA>
126

> <PUBCHEM_MONOISOTOPIC_WEIGHT>
335.070655

> <PUBCHEM_TOTAL_CHARGE>
0

> <PUBCHEM_HEAVY_ATOM_COUNT>
21

> <PUBCHEM_ATOM_DEF_STEREO_COUNT>
0

> <PUBCHEM_ATOM_UDEF_STEREO_COUNT>
1

> <PUBCHEM_BOND_DEF_STEREO_COUNT>
0

> <PUBCHEM_BOND_UDEF_STEREO_COUNT>
0

> <PUBCHEM_ISOTOPIC_ATOM_COUNT>
0

> <PUBCHEM_COMPONENT_COUNT>
1

> <PUBCHEM_CACTVS_TAUTO_COUNT>
1

> <PUBCHEM_COORDINATE_TYPE>
1

> <PUBCHEM_BONDANNOTATIONS>
10  11  3

$$$$
46173988
  CDK     1229141516

 40 40  0  0  0  0  0  0  0  0999 V2000
    5.1350    2.4050    0.0000 O   0  0  0  0  0  0  0  0  0  0  0  0
    4.2690    0.9050    0.0000 O   0  0  0  0  0  0  0  0  0  0  0  0
    2.5369   -4.0950    0.0000 O   0  0  0  0  0  0  0  0  0  0  0  0
    4.2690   -5.0950    0.0000 O   0  0  0  0  0  0  0  0  0  0  0  0
    7.7331    3.9050    0.0000 C   0  0  0  0  0  0  0  0  0  0  0  0
    6.8671    3.4050    0.0000 C   0  0  0  0  0  0  0  0  0  0  0  0
    7.7331    4.9050    0.0000 C   0  0  0  0  0  0  0  0  0  0  0  0
    6.8671    2.4050    0.0000 C   0  0  0  0  0  0  0  0  0  0  0  0
    8.5991    5.4050    0.0000 C   0  0  0  0  0  0  0  0  0  0  0  0
    6.0010    1.9050    0.0000 C   0  0  0  0  0  0  0  0  0  0  0  0
    6.0010    0.9050    0.0000 C   0  0  0  0  0  0  0  0  0  0  0  0
    5.1350    0.4050    0.0000 C   0  0  0  0  0  0  0  0  0  0  0  0
    4.2690   -2.0950    0.0000 C   0  0  0  0  0  0  0  0  0  0  0  0
    5.1350   -0.5950    0.0000 C   0  0  0  0  0  0  0  0  0  0  0  0
    4.2690   -1.0950    0.0000 C   0  0  0  0  0  0  0  0  0  0  0  0
    3.4030   -2.5950    0.0000 C   0  0  0  0  0  0  0  0  0  0  0  0
    5.1350   -2.5950    0.0000 C   0  0  0  0  0  0  0  0  0  0  0  0
    3.4030   -3.5950    0.0000 C   0  0  0  0  0  0  0  0  0  0  0  0
    4.2690   -4.0950    0.0000 C   0  0  0  0  0  0  0  0  0  0  0  0
    5.1350   -3.5950    0.0000 C   0  0  0  0  0  0  0  0  0  0  0  0
    7.9451    3.3224    0.0000 H   0  0  0  0  0  0  0  0  0  0  0  0
    8.3437    4.0127    0.0000 H   0  0  0  0  0  0  0  0  0  0  0  0
    6.6550    3.9876    0.0000 H   0  0  0  0  0  0  0  0  0  0  0  0
    6.2565    3.2973    0.0000 H   0  0  0  0  0  0  0  0  0  0  0  0
    7.5210    5.4876    0.0000 H   0  0  0  0  0  0  0  0  0  0  0  0
    7.1225    4.7973    0.0000 H   0  0  0  0  0  0  0  0  0  0  0  0
    7.0791    1.8224    0.0000 H   0  0  0  0  0  0  0  0  0  0  0  0
    7.4776    2.5127    0.0000 H   0  0  0  0  0  0  0  0  0  0  0  0
    8.9091    4.8681    0.0000 H   0  0  0  0  0  0  0  0  0  0  0  0
    9.1360    5.7150    0.0000 H   0  0  0  0  0  0  0  0  0  0  0  0
    8.2891    5.9419    0.0000 H   0  0  0  0  0  0  0  0  0  0  0  0
    6.5380    0.5950    0.0000 H   0  0  0  0  0  0  0  0  0  0  0  0
    5.6720   -0.9050    0.0000 H   0  0  0  0  0  0  0  0  0  0  0  0
    3.7320   -0.7850    0.0000 H   0  0  0  0  0  0  0  0  0  0  0  0
    2.8660   -2.2850    0.0000 H   0  0  0  0  0  0  0  0  0  0  0  0
    5.6720   -2.2850    0.0000 H   0  0  0  0  0  0  0  0  0  0  0  0
    5.6720   -3.9050    0.0000 H   0  0  0  0  0  0  0  0  0  0  0  0
    4.2690    1.5250    0.0000 H   0  0  0  0  0  0  0  0  0  0  0  0
    2.0000   -3.7850    0.0000 H   0  0  0  0  0  0  0  0  0  0  0  0
    4.8059   -5.4050    0.0000 H   0  0  0  0  0  0  0  0  0  0  0  0
  1 10  2  0  0  0  0 
  2 12  1  0  0  0  0 
  2 38  1  0  0  0  0 
  3 18  1  0  0  0  0 
  3 39  1  0  0  0  0 
  4 19  1  0  0  0  0 
  4 40  1  0  0  0  0 
  5  6  1  0  0  0  0 
  5  7  1  0  0  0  0 
  5 21  1  0  0  0  0 
  5 22  1  0  0  0  0 
  6  8  1  0  0  0  0 
  6 23  1  0  0  0  0 
  6 24  1  0  0  0  0 
  7  9  1  0  0  0  0 
  7 25  1  0  0  0  0 
  7 26  1  0  0  0  0 
  8 10  1  0  0  0  0 
  8 27  1  0  0  0  0 
  8 28  1  0  0  0  0 
  9 29  1  0  0  0  0 
  9 30  1  0  0  0  0 
  9 31  1  0  0  0  0 
 10 11  1  0  0  0  0 
 11 12  2  0  0  0  0 
 11 32  1  0  0  0  0 
 12 14  1  0  0  0  0 
 13 15  1  0  0  0  0 
 13 16  2  0  0  0  0 
 13 17  1  0  0  0  0 
 14 15  2  0  0  0  0 
 14 33  1  0  0  0  0 
 15 34  1  0  0  0  0 
 16 18  1  0  0  0  0 
 16 35  1  0  0  0  0 
 17 20  2  0  0  0  0 
 17 36  1  0  0  0  0 
 18 19  2  0  0  0  0 
 19 20  1  0  0  0  0 
 20 37  1  0  0  0  0 
M  END
> <cdk:Title>
46173988

> <cdk:Remark>
null

> <PUBCHEM_COMPOUND_CID>
46173988

> <PUBCHEM_COMPOUND_CANONICALIZED>
1

> <PUBCHEM_CACTVS_COMPLEXITY>
360

> <PUBCHEM_CACTVS_HBOND_ACCEPTOR>
4

> <PUBCHEM_CACTVS_HBOND_DONOR>
3

> <PUBCHEM_CACTVS_ROTATABLE_BOND>
7

> <PUBCHEM_CACTVS_SUBSKEYS>
AAADceB4OAAAAAAAAAAAAAAAAAAAAAAAAAAwAAAAAAAAAAABAAAAGgAACAAADASAmAAyBoAAAgCIAqBSAAACAAAgIAAIiAEGiMgJJjKCERKAcAEkwBEJmQeIyBAOIAABAAAAQABAAAIAAACAAAAAAAAAAA==

> <PUBCHEM_IUPAC_OPENEYE_NAME>
(1E,3Z)-1-(3,4-dihydroxyphenyl)-3-hydroxy-deca-1,3-dien-5-one

> <PUBCHEM_IUPAC_CAS_NAME>
(1E,3Z)-1-(3,4-dihydroxyphenyl)-3-hydroxy-5-deca-1,3-dienone

> <PUBCHEM_IUPAC_NAME>
(1E,3Z)-1-(3,4-dihydroxyphenyl)-3-hydroxydeca-1,3-dien-5-one

> <PUBCHEM_IUPAC_SYSTEMATIC_NAME>
(1E,3Z)-1-[3,4-bis(oxidanyl)phenyl]-3-oxidanyl-deca-1,3-dien-5-one

> <PUBCHEM_IUPAC_TRADITIONAL_NAME>
(1E,3Z)-1-(3,4-dihydroxyphenyl)-3-hydroxy-deca-1,3-dien-5-one

> <PUBCHEM_IUPAC_INCHI>
InChI=1S/C16H20O4/c1-2-3-4-5-13(17)11-14(18)8-6-12-7-9-15(19)16(20)10-12/h6-11,18-20H,2-5H2,1H3/b8-6+,14-11-

> <PUBCHEM_IUPAC_INCHIKEY>
NTKDMBBQTDNBSR-SQKGQWCESA-N

> <PUBCHEM_XLOGP3_AA>
3.9

> <PUBCHEM_EXACT_MASS>
276.136159

> <PUBCHEM_MOLECULAR_FORMULA>
C16H20O4

> <PUBCHEM_MOLECULAR_WEIGHT>
276.3276

> <PUBCHEM_OPENEYE_CAN_SMILES>
CCCCCC(=O)C=C(C=CC1=CC(=C(C=C1)O)O)O

> <PUBCHEM_OPENEYE_ISO_SMILES>
CCCCCC(=O)/C=C(/C=C/C1=CC(=C(C=C1)O)O)\O

> <PUBCHEM_CACTVS_TPSA>
77.8

> <PUBCHEM_MONOISOTOPIC_WEIGHT>
276.136159

> <PUBCHEM_TOTAL_CHARGE>
0

> <PUBCHEM_HEAVY_ATOM_COUNT>
20

> <PUBCHEM_ATOM_DEF_STEREO_COUNT>
0

> <PUBCHEM_ATOM_UDEF_STEREO_COUNT>
0

> <PUBCHEM_BOND_DEF_STEREO_COUNT>
2

> <PUBCHEM_BOND_UDEF_STEREO_COUNT>
0

> <PUBCHEM_ISOTOPIC_ATOM_COUNT>
0

> <PUBCHEM_COMPONENT_COUNT>
1

> <PUBCHEM_CACTVS_TAUTO_COUNT>
74

> <PUBCHEM_COORDINATE_TYPE>
1

> <PUBCHEM_BONDANNOTATIONS>
13  16  8

$$$$
28615742
  CDK     1229141516

 27 27  0  0  0  0  0  0  0  0999 V2000
    5.4641    2.7500    0.0000 S   0  0  0  0  0  0  0  0  0  0  0  0
    2.0000   -3.2500    0.0000 F   0  0  0  0  0  0  0  0  0  0  0  0
    3.7320   -0.2500    0.0000 N   0  0  0  0  0  0  0  0  0  0  0  0
    4.5981    1.2500    0.0000 C   0  0  0  0  0  0  0  0  0  0  0  0
    4.5981    0.2500    0.0000 C   0  0  0  0  0  0  0  0  0  0  0  0
    5.4641    1.7500    0.0000 C   0  0  0  0  0  0  0  0  0  0  0  0
    3.7320   -1.2500    0.0000 C   0  0  0  0  0  0  0  0  0  0  0  0
    2.8660   -1.7500    0.0000 C   0  0  0  0  0  0  0  0  0  0  0  0
    4.5981   -1.7500    0.0000 C   0  0  0  0  0  0  0  0  0  0  0  0
    2.8660   -2.7500    0.0000 C   0  0  0  0  0  0  0  0  0  0  0  0
    4.5981   -2.7500    0.0000 C   0  0  0  0  0  0  0  0  0  0  0  0
    3.7320   -3.2500    0.0000 C   0  0  0  0  0  0  0  0  0  0  0  0
    6.3301    3.2500    0.0000 C   0  0  0  0  0  0  0  0  0  0  0  0
    4.3860    1.8326    0.0000 H   0  0  0  0  0  0  0  0  0  0  0  0
    3.9875    1.1423    0.0000 H   0  0  0  0  0  0  0  0  0  0  0  0
    4.8101   -0.3326    0.0000 H   0  0  0  0  0  0  0  0  0  0  0  0
    5.2087    0.3577    0.0000 H   0  0  0  0  0  0  0  0  0  0  0  0
    5.6762    1.1674    0.0000 H   0  0  0  0  0  0  0  0  0  0  0  0
    6.0747    1.8577    0.0000 H   0  0  0  0  0  0  0  0  0  0  0  0
    3.1951    0.0600    0.0000 H   0  0  0  0  0  0  0  0  0  0  0  0
    2.3291   -1.4400    0.0000 H   0  0  0  0  0  0  0  0  0  0  0  0
    5.1350   -1.4400    0.0000 H   0  0  0  0  0  0  0  0  0  0  0  0
    5.1350   -3.0600    0.0000 H   0  0  0  0  0  0  0  0  0  0  0  0
    3.7320   -3.8700    0.0000 H   0  0  0  0  0  0  0  0  0  0  0  0
    6.6401    2.7131    0.0000 H   0  0  0  0  0  0  0  0  0  0  0  0
    6.8671    3.5600    0.0000 H   0  0  0  0  0  0  0  0  0  0  0  0
    6.0201    3.7869    0.0000 H   0  0  0  0  0  0  0  0  0  0  0  0
  1  6  1  0  0  0  0 
  1 13  1  0  0  0  0 
  2 10  1  0  0  0  0 
  3  5  1  0  0  0  0 
  3  7  1  0  0  0  0 
  3 20  1  0  0  0  0 
  4  5  1  0  0  0  0 
  4  6  1  0  0  0  0 
  4 14  1  0  0  0  0 
  4 15  1  0  0  0  0 
  5 16  1  0  0  0  0 
  5 17  1  0  0  0  0 
  6 18  1  0  0  0  0 
  6 19  1  0  0  0  0 
  7  8  2  0  0  0  0 
  7  9  1  0  0  0  0 
  8 10  1  0  0  0  0 
  8 21  1  0  0  0  0 
  9 11  2  0  0  0  0 
  9 22  1  0  0  0  0 
 10 12  2  0  0  0  0 
 11 12  1  0  0  0  0 
 11 23  1  0  0  0  0 
 12 24  1  0  0  0  0 
 13 25  1  0  0  0  0 
 13 26  1  0  0  0  0 
 13 27  1  0  0  0  0 
M  END
> <cdk:Title>
28615742

> <cdk:Remark>
null

> <PUBCHEM_COMPOUND_CID>
28615742

> <PUBCHEM_COMPOUND_CANONICALIZED>
1

> <PUBCHEM_CACTVS_COMPLEXITY>
132

> <PUBCHEM_CACTVS_HBOND_ACCEPTOR>
3

> <PUBCHEM_CACTVS_HBOND_DONOR>
1

> <PUBCHEM_CACTVS_ROTATABLE_BOND>
5

> <PUBCHEM_CACTVS_SUBSKEYS>
AAADccByAQBAAAAAAAAAAAAAAAAAAAAAAAAwAAAAAAAAAAABAAAAHQQQAAAACAjFUAyywILAAAiAACRCQACCAAAhAhAIiIAIZIgIICLgkZGEIAhgkADIyAcQAAAAAAAAAAAAAAAAAAAAAAAAAAAAAAAAAA==

> <PUBCHEM_IUPAC_OPENEYE_NAME>
3-fluoro-N-(3-methylsulfanylpropyl)aniline

> <PUBCHEM_IUPAC_CAS_NAME>
3-fluoro-N-[3-(methylthio)propyl]aniline

> <PUBCHEM_IUPAC_NAME>
3-fluoro-N-(3-methylsulfanylpropyl)aniline

> <PUBCHEM_IUPAC_SYSTEMATIC_NAME>
3-fluoranyl-N-(3-methylsulfanylpropyl)aniline

> <PUBCHEM_IUPAC_TRADITIONAL_NAME>
(3-fluorophenyl)-[3-(methylthio)propyl]amine

> <PUBCHEM_IUPAC_INCHI>
InChI=1S/C10H14FNS/c1-13-7-3-6-12-10-5-2-4-9(11)8-10/h2,4-5,8,12H,3,6-7H2,1H3

> <PUBCHEM_IUPAC_INCHIKEY>
RQKJSCAZJLEDDK-UHFFFAOYSA-N

> <PUBCHEM_XLOGP3_AA>
3

> <PUBCHEM_EXACT_MASS>
199.083099

> <PUBCHEM_MOLECULAR_FORMULA>
C10H14FNS

> <PUBCHEM_MOLECULAR_WEIGHT>
199.288263

> <PUBCHEM_OPENEYE_CAN_SMILES>
CSCCCNC1=CC(=CC=C1)F

> <PUBCHEM_OPENEYE_ISO_SMILES>
CSCCCNC1=CC(=CC=C1)F

> <PUBCHEM_CACTVS_TPSA>
37.3

> <PUBCHEM_MONOISOTOPIC_WEIGHT>
199.083099

> <PUBCHEM_TOTAL_CHARGE>
0

> <PUBCHEM_HEAVY_ATOM_COUNT>
13

> <PUBCHEM_ATOM_DEF_STEREO_COUNT>
0

> <PUBCHEM_ATOM_UDEF_STEREO_COUNT>
0

> <PUBCHEM_BOND_DEF_STEREO_COUNT>
0

> <PUBCHEM_BOND_UDEF_STEREO_COUNT>
0

> <PUBCHEM_ISOTOPIC_ATOM_COUNT>
0

> <PUBCHEM_COMPONENT_COUNT>
1

> <PUBCHEM_CACTVS_TAUTO_COUNT>
1

> <PUBCHEM_COORDINATE_TYPE>
1

> <PUBCHEM_BONDANNOTATIONS>
10  12  8

$$$$
