41521370
  CDK     1229141458

 31 32  0  0  0  0  0  0  0  0999 V2000
    2.0000   -1.0000    0.0000 Br  0  0  0  0  0  0  0  0  0  0  0  0
    6.5000   -0.1340    0.0000 N   0  0  0  0  0  0  0  0  0  0  0  0
    5.6340    0.3660    0.0000 C   0  0  0  0  0  0  0  0  0  0  0  0
    7.3660    0.3660    0.0000 C   0  0  0  0  0  0  0  0  0  0  0  0
    5.6340    1.3660    0.0000 C   0  0  0  0  0  0  0  0  0  0  0  0
    7.3660    1.3660    0.0000 C   0  0  0  0  0  0  0  0  0  0  0  0
    6.5000    1.8660    0.0000 C   0  0  0  0  0  0  0  0  0  0  0  0
    6.0000   -1.0000    0.0000 C   0  0  0  0  0  0  0  0  0  0  0  0
    5.0000   -1.0000    0.0000 C   0  0  0  0  0  0  0  0  0  0  0  0
    4.5000   -0.1340    0.0000 C   0  0  0  0  0  0  0  0  0  0  0  0
    4.5000   -1.8660    0.0000 C   0  0  0  0  0  0  0  0  0  0  0  0
    3.5000   -0.1340    0.0000 C   0  0  0  0  0  0  0  0  0  0  0  0
    3.5000   -1.8660    0.0000 C   0  0  0  0  0  0  0  0  0  0  0  0
    3.0000   -1.0000    0.0000 C   0  0  0  0  0  0  0  0  0  0  0  0
    6.8100   -0.6709    0.0000 H   0  0  0  0  0  0  0  0  0  0  0  0
    5.0234    0.4737    0.0000 H   0  0  0  0  0  0  0  0  0  0  0  0
    5.4219   -0.2166    0.0000 H   0  0  0  0  0  0  0  0  0  0  0  0
    7.5781   -0.2166    0.0000 H   0  0  0  0  0  0  0  0  0  0  0  0
    7.9766    0.4737    0.0000 H   0  0  0  0  0  0  0  0  0  0  0  0
    5.4219    1.9486    0.0000 H   0  0  0  0  0  0  0  0  0  0  0  0
    5.0234    1.2584    0.0000 H   0  0  0  0  0  0  0  0  0  0  0  0
    7.9766    1.2584    0.0000 H   0  0  0  0  0  0  0  0  0  0  0  0
    7.5781    1.9486    0.0000 H   0  0  0  0  0  0  0  0  0  0  0  0
    6.8985    2.3410    0.0000 H   0  0  0  0  0  0  0  0  0  0  0  0
    6.1015    2.3410    0.0000 H   0  0  0  0  0  0  0  0  0  0  0  0
    5.8923   -1.6106    0.0000 H   0  0  0  0  0  0  0  0  0  0  0  0
    6.5826   -1.2120    0.0000 H   0  0  0  0  0  0  0  0  0  0  0  0
    4.8100    0.4030    0.0000 H   0  0  0  0  0  0  0  0  0  0  0  0
    4.8100   -2.4030    0.0000 H   0  0  0  0  0  0  0  0  0  0  0  0
    3.1900    0.4030    0.0000 H   0  0  0  0  0  0  0  0  0  0  0  0
    3.1900   -2.4030    0.0000 H   0  0  0  0  0  0  0  0  0  0  0  0
  1 14  1  0  0  0  0 
  2  3  1  0  0  0  0 
  2  4  1  0  0  0  0 
  2  8  1  0  0  0  0 
  2 15  1  0  0  0  0 
  3  5  1  0  0  0  0 
  3 16  1  0  0  0  0 
  3 17  1  0  0  0  0 
  4  6  1  0  0  0  0 
  4 18  1  0  0  0  0 
  4 19  1  0  0  0  0 
  5  7  1  0  0  0  0 
  5 20  1  0  0  0  0 
  5 21  1  0  0  0  0 
  6  7  1  0  0  0  0 
  6 22  1  0  0  0  0 
  6 23  1  0  0  0  0 
  7 24  1  0  0  0  0 
  7 25  1  0  0  0  0 
  8  9  1  0  0  0  0 
  8 26  1  0  0  0  0 
  8 27  1  0  0  0  0 
  9 10  2  0  0  0  0 
  9 11  1  0  0  0  0 
 10 12  1  0  0  0  0 
 10 28  1  0  0  0  0 
 11 13  2  0  0  0  0 
 11 29  1  0  0  0  0 
 12 14  2  0  0  0  0 
 12 30  1  0  0  0  0 
 13 14  1  0  0  0  0 
 13 31  1  0  0  0  0 
M  CHG  1   2   1
M  END
> <cdk:Title>
41521370

> <cdk:Remark>
null

> <PUBCHEM_COMPOUND_CID>
41521370

> <PUBCHEM_COMPOUND_CANONICALIZED>
1

> <PUBCHEM_CACTVS_COMPLEXITY>
158

> <PUBCHEM_CACTVS_HBOND_ACCEPTOR>
0

> <PUBCHEM_CACTVS_HBOND_DONOR>
1

> <PUBCHEM_CACTVS_ROTATABLE_BOND>
2

> <PUBCHEM_CACTVS_SUBSKEYS>
AAADceByAAAAEAAAAAAAAAAAAAAAAAAAAAA8QAAAAAAAAAABAAAAHABQAAABrADBGAQwAIPAAACAAiBCAACCAAAgAAQIiIAIBKgIICKAkRGEIAhgkACIihcQgAAOAgAAAAAAAAAEAAAAAAAAAAAAAAAAAA==

> <PUBCHEM_IUPAC_OPENEYE_NAME>
1-[(4-bromophenyl)methyl]piperidin-1-ium

> <PUBCHEM_IUPAC_CAS_NAME>
1-[(4-bromophenyl)methyl]piperidin-1-ium

> <PUBCHEM_IUPAC_NAME>
1-[(4-bromophenyl)methyl]piperidin-1-ium

> <PUBCHEM_IUPAC_SYSTEMATIC_NAME>
1-[(4-bromophenyl)methyl]piperidin-1-ium

> <PUBCHEM_IUPAC_TRADITIONAL_NAME>
1-(4-bromobenzyl)piperidin-1-ium

> <PUBCHEM_IUPAC_INCHI>
InChI=1S/C12H16BrN/c13-12-6-4-11(5-7-12)10-14-8-2-1-3-9-14/h4-7H,1-3,8-10H2/p+1

> <PUBCHEM_IUPAC_INCHIKEY>
ILQFFXGIIWWTNH-UHFFFAOYSA-O

> <PUBCHEM_XLOGP3_AA>
3.3

> <PUBCHEM_EXACT_MASS>
254.054437

> <PUBCHEM_MOLECULAR_FORMULA>
C12H17BrN+

> <PUBCHEM_MOLECULAR_WEIGHT>
255.17408

> <PUBCHEM_OPENEYE_CAN_SMILES>
C1CC[NH+](CC1)CC2=CC=C(C=C2)Br

> <PUBCHEM_OPENEYE_ISO_SMILES>
C1CC[NH+](CC1)CC2=CC=C(C=C2)Br

> <PUBCHEM_CACTVS_TPSA>
4.4

> <PUBCHEM_MONOISOTOPIC_WEIGHT>
254.054437

> <PUBCHEM_TOTAL_CHARGE>
1

> <PUBCHEM_HEAVY_ATOM_COUNT>
14

> <PUBCHEM_ATOM_DEF_STEREO_COUNT>
0

> <PUBCHEM_ATOM_UDEF_STEREO_COUNT>
0

> <PUBCHEM_BOND_DEF_STEREO_COUNT>
0

> <PUBCHEM_BOND_UDEF_STEREO_COUNT>
0

> <PUBCHEM_ISOTOPIC_ATOM_COUNT>
0

> <PUBCHEM_COMPONENT_COUNT>
1

> <PUBCHEM_CACTVS_TAUTO_COUNT>
1

> <PUBCHEM_COORDINATE_TYPE>
1

> <PUBCHEM_BONDANNOTATIONS>
10  12  8

$$$$
54002944
  CDK     1229141458

 35 36  0  0  0  0  0  0  0  0999 V2000
    2.0000    0.1682    0.0000 O   0  0  0  0  0  0  0  0  0  0  0  0
    3.7320    0.1682    0.0000 C   0  0  3  0  0  0  0  0  0  0  0  0
    3.7320    1.1682    0.0000 C   0  0  0  0  0  0  0  0  0  0  0  0
    4.5981    1.6682    0.0000 C   0  0  0  0  0  0  0  0  0  0  0  0
    4.7026    2.6627    0.0000 C   0  0  0  0  0  0  0  0  0  0  0  0
    5.6808    2.8706    0.0000 C   0  0  0  0  0  0  0  0  0  0  0  0
    6.1808    2.0046    0.0000 C   0  0  0  0  0  0  0  0  0  0  0  0
    2.8660   -1.3318    0.0000 C   0  0  0  0  0  0  0  0  0  0  0  0
    3.6750   -1.9196    0.0000 C   0  0  0  0  0  0  0  0  0  0  0  0
    2.8660   -0.3318    0.0000 C   0  0  0  0  0  0  0  0  0  0  0  0
    5.5116    1.2615    0.0000 C   0  0  0  0  0  0  0  0  0  0  0  0
    3.3660   -2.8706    0.0000 C   0  0  0  0  0  0  0  0  0  0  0  0
    2.3660   -2.8706    0.0000 C   0  0  0  0  0  0  0  0  0  0  0  0
    2.0570   -1.9196    0.0000 C   0  0  0  0  0  0  0  0  0  0  0  0
    4.5981   -0.3318    0.0000 C   0  0  0  0  0  0  0  0  0  0  0  0
    3.7320   -0.4518    0.0000 H   0  0  0  0  0  0  0  0  0  0  0  0
    3.5200    1.7508    0.0000 H   0  0  0  0  0  0  0  0  0  0  0  0
    3.1215    1.0605    0.0000 H   0  0  0  0  0  0  0  0  0  0  0  0
    4.6378    3.2793    0.0000 H   0  0  0  0  0  0  0  0  0  0  0  0
    4.0826    2.6627    0.0000 H   0  0  0  0  0  0  0  0  0  0  0  0
    6.2472    3.1228    0.0000 H   0  0  0  0  0  0  0  0  0  0  0  0
    5.4892    3.4603    0.0000 H   0  0  0  0  0  0  0  0  0  0  0  0
    6.5956    1.5439    0.0000 H   0  0  0  0  0  0  0  0  0  0  0  0
    6.6823    2.3690    0.0000 H   0  0  0  0  0  0  0  0  0  0  0  0
    4.2414   -2.1718    0.0000 H   0  0  0  0  0  0  0  0  0  0  0  0
    3.9850   -1.3826    0.0000 H   0  0  0  0  0  0  0  0  0  0  0  0
    5.6405    0.6550    0.0000 H   0  0  0  0  0  0  0  0  0  0  0  0
    3.3012   -3.4872    0.0000 H   0  0  0  0  0  0  0  0  0  0  0  0
    3.9725   -2.9995    0.0000 H   0  0  0  0  0  0  0  0  0  0  0  0
    1.7596   -2.9995    0.0000 H   0  0  0  0  0  0  0  0  0  0  0  0
    2.4308   -3.4872    0.0000 H   0  0  0  0  0  0  0  0  0  0  0  0
    1.4674   -1.7280    0.0000 H   0  0  0  0  0  0  0  0  0  0  0  0
    4.2881   -0.8687    0.0000 H   0  0  0  0  0  0  0  0  0  0  0  0
    5.1350   -0.6418    0.0000 H   0  0  0  0  0  0  0  0  0  0  0  0
    4.9081    0.2051    0.0000 H   0  0  0  0  0  0  0  0  0  0  0  0
  1 10  2  0  0  0  0 
  2  3  1  0  0  0  0 
  2 10  1  0  0  0  0 
  2 15  1  0  0  0  0 
  2 16  1  0  0  0  0 
  3  4  1  0  0  0  0 
  3 17  1  0  0  0  0 
  3 18  1  0  0  0  0 
  4  5  1  0  0  0  0 
  4 11  2  0  0  0  0 
  5  6  1  0  0  0  0 
  5 19  1  0  0  0  0 
  5 20  1  0  0  0  0 
  6  7  1  0  0  0  0 
  6 21  1  0  0  0  0 
  6 22  1  0  0  0  0 
  7 11  1  0  0  0  0 
  7 23  1  0  0  0  0 
  7 24  1  0  0  0  0 
  8  9  1  0  0  0  0 
  8 10  1  0  0  0  0 
  8 14  2  0  0  0  0 
  9 12  1  0  0  0  0 
  9 25  1  0  0  0  0 
  9 26  1  0  0  0  0 
 11 27  1  0  0  0  0 
 12 13  1  0  0  0  0 
 12 28  1  0  0  0  0 
 12 29  1  0  0  0  0 
 13 14  1  0  0  0  0 
 13 30  1  0  0  0  0 
 13 31  1  0  0  0  0 
 14 32  1  0  0  0  0 
 15 33  1  0  0  0  0 
 15 34  1  0  0  0  0 
 15 35  1  0  0  0  0 
M  END
> <cdk:Title>
54002944

> <cdk:Remark>
null

> <PUBCHEM_COMPOUND_CID>
54002944

> <PUBCHEM_COMPOUND_CANONICALIZED>
1

> <PUBCHEM_CACTVS_COMPLEXITY>
309

> <PUBCHEM_CACTVS_HBOND_ACCEPTOR>
1

> <PUBCHEM_CACTVS_HBOND_DONOR>
0

> <PUBCHEM_CACTVS_ROTATABLE_BOND>
4

> <PUBCHEM_CACTVS_SUBSKEYS>
AAADceBwIAAAAAAAAAAAAAAAAAAAAQIAAAAAAAAAAAAAAAAAAAAAGgAAAAAADQSAgAACAAAAAACIAqBSAAAAAAAgAAAACAEAAEgAABIAAQAAAAAAgAAIAYMIiMCOAAAAAAAAAAAAAAAAAAAAAAAAAAAAAA==

> <PUBCHEM_IUPAC_OPENEYE_NAME>
1,3-di(cyclopenten-1-yl)-2-methyl-propan-1-one

> <PUBCHEM_IUPAC_CAS_NAME>
1,3-bis(1-cyclopentenyl)-2-methyl-1-propanone

> <PUBCHEM_IUPAC_NAME>
1,3-di(cyclopenten-1-yl)-2-methylpropan-1-one

> <PUBCHEM_IUPAC_SYSTEMATIC_NAME>
1,3-di(cyclopenten-1-yl)-2-methyl-propan-1-one

> <PUBCHEM_IUPAC_TRADITIONAL_NAME>
1,3-di(cyclopenten-1-yl)-2-methyl-propan-1-one

> <PUBCHEM_IUPAC_INCHI>
InChI=1S/C14H20O/c1-11(10-12-6-2-3-7-12)14(15)13-8-4-5-9-13/h6,8,11H,2-5,7,9-10H2,1H3

> <PUBCHEM_IUPAC_INCHIKEY>
JTJULRWMVWSIOJ-UHFFFAOYSA-N

> <PUBCHEM_XLOGP3_AA>
3.3

> <PUBCHEM_EXACT_MASS>
204.151415

> <PUBCHEM_MOLECULAR_FORMULA>
C14H20O

> <PUBCHEM_MOLECULAR_WEIGHT>
204.308

> <PUBCHEM_OPENEYE_CAN_SMILES>
CC(CC1=CCCC1)C(=O)C2=CCCC2

> <PUBCHEM_OPENEYE_ISO_SMILES>
CC(CC1=CCCC1)C(=O)C2=CCCC2

> <PUBCHEM_CACTVS_TPSA>
17.1

> <PUBCHEM_MONOISOTOPIC_WEIGHT>
204.151415

> <PUBCHEM_TOTAL_CHARGE>
0

> <PUBCHEM_HEAVY_ATOM_COUNT>
15

> <PUBCHEM_ATOM_DEF_STEREO_COUNT>
0

> <PUBCHEM_ATOM_UDEF_STEREO_COUNT>
1

> <PUBCHEM_BOND_DEF_STEREO_COUNT>
0

> <PUBCHEM_BOND_UDEF_STEREO_COUNT>
0

> <PUBCHEM_ISOTOPIC_ATOM_COUNT>
0

> <PUBCHEM_COMPONENT_COUNT>
1

> <PUBCHEM_CACTVS_TAUTO_COUNT>
5

> <PUBCHEM_COORDINATE_TYPE>
1

> <PUBCHEM_BONDANNOTATIONS>
2  15  3

$$$$
41521370
  CDK     1229141458

 31 32  0  0  0  0  0  0  0  0999 V2000
    2.0000   -1.0000    0.0000 Br  0  0  0  0  0  0  0  0  0  0  0  0
    6.5000   -0.1340    0.0000 N   0  0  0  0  0  0  0  0  0  0  0  0
    5.6340    0.3660    0.0000 C   0  0  0  0  0  0  0  0  0  0  0  0
    7.3660    0.3660    0.0000 C   0  0  0  0  0  0  0  0  0  0  0  0
    5.6340    1.3660    0.0000 C   0  0  0  0  0  0  0  0  0  0  0  0
    7.3660    1.3660    0.0000 C   0  0  0  0  0  0  0  0  0  0  0  0
    6.5000    1.8660    0.0000 C   0  0  0  0  0  0  0  0  0  0  0  0
    6.0000   -1.0000    0.0000 C   0  0  0  0  0  0  0  0  0  0  0  0
    5.0000   -1.0000    0.0000 C   0  0  0  0  0  0  0  0  0  0  0  0
    4.5000   -0.1340    0.0000 C   0  0  0  0  0  0  0  0  0  0  0  0
    4.5000   -1.8660    0.0000 C   0  0  0  0  0  0  0  0  0  0  0  0
    3.5000   -0.1340    0.0000 C   0  0  0  0  0  0  0  0  0  0  0  0
    3.5000   -1.8660    0.0000 C   0  0  0  0  0  0  0  0  0  0  0  0
    3.0000   -1.0000    0.0000 C   0  0  0  0  0  0  0  0  0  0  0  0
    6.8100   -0.6709    0.0000 H   0  0  0  0  0  0  0  0  0  0  0  0
    5.0234    0.4737    0.0000 H   0  0  0  0  0  0  0  0  0  0  0  0
    5.4219   -0.2166    0.0000 H   0  0  0  0  0  0  0  0  0  0  0  0
    7.5781   -0.2166    0.0000 H   0  0  0  0  0  0  0  0  0  0  0  0
    7.9766    0.4737    0.0000 H   0  0  0  0  0  0  0  0  0  0  0  0
    5.4219    1.9486    0.0000 H   0  0  0  0  0  0  0  0  0  0  0  0
    5.0234    1.2584    0.0000 H   0  0  0  0  0  0  0  0  0  0  0  0
    7.9766    1.2584    0.0000 H   0  0  0  0  0  0  0  0  0  0  0  0
    7.5781    1.9486    0.0000 H   0  0  0  0  0  0  0  0  0  0  0  0
    6.8985    2.3410    0.0000 H   0  0  0  0  0  0  0  0  0  0  0  0
    6.1015    2.3410    0.0000 H   0  0  0  0  0  0  0  0  0  0  0  0
    5.8923   -1.6106    0.0000 H   0  0  0  0  0  0  0  0  0  0  0  0
    6.5826   -1.2120    0.0000 H   0  0  0  0  0  0  0  0  0  0  0  0
    4.8100    0.4030    0.0000 H   0  0  0  0  0  0  0  0  0  0  0  0
    4.8100   -2.4030    0.0000 H   0  0  0  0  0  0  0  0  0  0  0  0
    3.1900    0.4030    0.0000 H   0  0  0  0  0  0  0  0  0  0  0  0
    3.1900   -2.4030    0.0000 H   0  0  0  0  0  0  0  0  0  0  0  0
  1 14  1  0  0  0  0 
  2  3  1  0  0  0  0 
  2  4  1  0  0  0  0 
  2  8  1  0  0  0  0 
  2 15  1  0  0  0  0 
  3  5  1  0  0  0  0 
  3 16  1  0  0  0  0 
  3 17  1  0  0  0  0 
  4  6  1  0  0  0  0 
  4 18  1  0  0  0  0 
  4 19  1  0  0  0  0 
  5  7  1  0  0  0  0 
  5 20  1  0  0  0  0 
  5 21  1  0  0  0  0 
  6  7  1  0  0  0  0 
  6 22  1  0  0  0  0 
  6 23  1  0  0  0  0 
  7 24  1  0  0  0  0 
  7 25  1  0  0  0  0 
  8  9  1  0  0  0  0 
  8 26  1  0  0  0  0 
  8 27  1  0  0  0  0 
  9 10  2  0  0  0  0 
  9 11  1  0  0  0  0 
 10 12  1  0  0  0  0 
 10 28  1  0  0  0  0 
 11 13  2  0  0  0  0 
 11 29  1  0  0  0  0 
 12 14  2  0  0  0  0 
 12 30  1  0  0  0  0 
 13 14  1  0  0  0  0 
 13 31  1  0  0  0  0 
M  CHG  1   2   1
M  END
> <cdk:Title>
41521370

> <cdk:Remark>
null

> <PUBCHEM_COMPOUND_CID>
41521370

> <PUBCHEM_COMPOUND_CANONICALIZED>
1

> <PUBCHEM_CACTVS_COMPLEXITY>
158

> <PUBCHEM_CACTVS_HBOND_ACCEPTOR>
0

> <PUBCHEM_CACTVS_HBOND_DONOR>
1

> <PUBCHEM_CACTVS_ROTATABLE_BOND>
2

> <PUBCHEM_CACTVS_SUBSKEYS>
AAADceByAAAAEAAAAAAAAAAAAAAAAAAAAAA8QAAAAAAAAAABAAAAHABQAAABrADBGAQwAIPAAACAAiBCAACCAAAgAAQIiIAIBKgIICKAkRGEIAhgkACIihcQgAAOAgAAAAAAAAAEAAAAAAAAAAAAAAAAAA==

> <PUBCHEM_IUPAC_OPENEYE_NAME>
1-[(4-bromophenyl)methyl]piperidin-1-ium

> <PUBCHEM_IUPAC_CAS_NAME>
1-[(4-bromophenyl)methyl]piperidin-1-ium

> <PUBCHEM_IUPAC_NAME>
1-[(4-bromophenyl)methyl]piperidin-1-ium

> <PUBCHEM_IUPAC_SYSTEMATIC_NAME>
1-[(4-bromophenyl)methyl]piperidin-1-ium

> <PUBCHEM_IUPAC_TRADITIONAL_NAME>
1-(4-bromobenzyl)piperidin-1-ium

> <PUBCHEM_IUPAC_INCHI>
InChI=1S/C12H16BrN/c13-12-6-4-11(5-7-12)10-14-8-2-1-3-9-14/h4-7H,1-3,8-10H2/p+1

> <PUBCHEM_IUPAC_INCHIKEY>
ILQFFXGIIWWTNH-UHFFFAOYSA-O

> <PUBCHEM_XLOGP3_AA>
3.3

> <PUBCHEM_EXACT_MASS>
254.054437

> <PUBCHEM_MOLECULAR_FORMULA>
C12H17BrN+

> <PUBCHEM_MOLECULAR_WEIGHT>
255.17408

> <PUBCHEM_OPENEYE_CAN_SMILES>
C1CC[NH+](CC1)CC2=CC=C(C=C2)Br

> <PUBCHEM_OPENEYE_ISO_SMILES>
C1CC[NH+](CC1)CC2=CC=C(C=C2)Br

> <PUBCHEM_CACTVS_TPSA>
4.4

> <PUBCHEM_MONOISOTOPIC_WEIGHT>
254.054437

> <PUBCHEM_TOTAL_CHARGE>
1

> <PUBCHEM_HEAVY_ATOM_COUNT>
14

> <PUBCHEM_ATOM_DEF_STEREO_COUNT>
0

> <PUBCHEM_ATOM_UDEF_STEREO_COUNT>
0

> <PUBCHEM_BOND_DEF_STEREO_COUNT>
0

> <PUBCHEM_BOND_UDEF_STEREO_COUNT>
0

> <PUBCHEM_ISOTOPIC_ATOM_COUNT>
0

> <PUBCHEM_COMPONENT_COUNT>
1

> <PUBCHEM_CACTVS_TAUTO_COUNT>
1

> <PUBCHEM_COORDINATE_TYPE>
1

> <PUBCHEM_BONDANNOTATIONS>
10  12  8

$$$$
54288463
  CDK     1229141458

 62 63  0  0  0  0  0  0  0  0999 V2000
    6.0010    1.2500    0.0000 O   0  0  0  0  0  0  0  0  0  0  0  0
   11.1972   -1.7500    0.0000 O   0  0  0  0  0  0  0  0  0  0  0  0
    2.5369   -1.7500    0.0000 O   0  0  0  0  0  0  0  0  0  0  0  0
    6.8671   -2.2500    0.0000 C   0  0  0  0  0  0  0  0  0  0  0  0
    9.4651    2.2500    0.0000 C   0  0  0  0  0  0  0  0  0  0  0  0
    6.0010   -1.7500    0.0000 C   0  0  0  0  0  0  0  0  0  0  0  0
    9.4651    1.2500    0.0000 C   0  0  0  0  0  0  0  0  0  0  0  0
   10.3312    2.7500    0.0000 C   0  0  0  0  0  0  0  0  0  0  0  0
    6.8671   -3.2500    0.0000 C   0  0  0  0  0  0  0  0  0  0  0  0
   10.3312    0.7500    0.0000 C   0  0  0  0  0  0  0  0  0  0  0  0
    5.1350   -2.2500    0.0000 C   0  0  0  0  0  0  0  0  0  0  0  0
    6.8671   -0.2500    0.0000 C   0  0  0  0  0  0  0  0  0  0  0  0
    7.7331    1.2500    0.0000 C   0  0  0  0  0  0  0  0  0  0  0  0
    6.0010   -0.7500    0.0000 C   0  0  0  0  0  0  0  0  0  0  0  0
    8.5991    0.7500    0.0000 C   0  0  0  0  0  0  0  0  0  0  0  0
    7.7331   -1.7500    0.0000 C   0  0  0  0  0  0  0  0  0  0  0  0
    8.5991    2.7500    0.0000 C   0  0  0  0  0  0  0  0  0  0  0  0
   10.3312   -0.2500    0.0000 C   0  0  0  0  0  0  0  0  0  0  0  0
    4.2690   -1.7500    0.0000 C   0  0  0  0  0  0  0  0  0  0  0  0
    6.8671    0.7500    0.0000 C   0  0  0  0  0  0  0  0  0  0  0  0
    7.7331   -0.7500    0.0000 C   0  0  0  0  0  0  0  0  0  0  0  0
    7.7331    2.2500    0.0000 C   0  0  0  0  0  0  0  0  0  0  0  0
    7.7331   -3.7500    0.0000 C   0  0  0  0  0  0  0  0  0  0  0  0
    6.0010   -3.7500    0.0000 C   0  0  0  0  0  0  0  0  0  0  0  0
   10.3312    3.7500    0.0000 C   0  0  0  0  0  0  0  0  0  0  0  0
   11.1972    2.2500    0.0000 C   0  0  0  0  0  0  0  0  0  0  0  0
   11.1972   -0.7500    0.0000 C   0  0  0  0  0  0  0  0  0  0  0  0
    3.4030   -2.2500    0.0000 C   0  0  0  0  0  0  0  0  0  0  0  0
   10.8681    3.0600    0.0000 H   0  0  0  0  0  0  0  0  0  0  0  0
    6.3301   -2.9400    0.0000 H   0  0  0  0  0  0  0  0  0  0  0  0
   10.9417    0.6423    0.0000 H   0  0  0  0  0  0  0  0  0  0  0  0
   10.5432    1.3326    0.0000 H   0  0  0  0  0  0  0  0  0  0  0  0
    4.7365   -2.7250    0.0000 H   0  0  0  0  0  0  0  0  0  0  0  0
    5.5335   -2.7250    0.0000 H   0  0  0  0  0  0  0  0  0  0  0  0
    8.5991    0.1300    0.0000 H   0  0  0  0  0  0  0  0  0  0  0  0
    5.4641   -0.4400    0.0000 H   0  0  0  0  0  0  0  0  0  0  0  0
    8.5991    3.3700    0.0000 H   0  0  0  0  0  0  0  0  0  0  0  0
    8.2700   -2.0600    0.0000 H   0  0  0  0  0  0  0  0  0  0  0  0
    9.7206   -0.1423    0.0000 H   0  0  0  0  0  0  0  0  0  0  0  0
   10.1191   -0.8326    0.0000 H   0  0  0  0  0  0  0  0  0  0  0  0
    4.6675   -1.2750    0.0000 H   0  0  0  0  0  0  0  0  0  0  0  0
    3.8705   -1.2750    0.0000 H   0  0  0  0  0  0  0  0  0  0  0  0
    7.1962    2.5600    0.0000 H   0  0  0  0  0  0  0  0  0  0  0  0
    8.2700   -0.4400    0.0000 H   0  0  0  0  0  0  0  0  0  0  0  0
    7.4231   -4.2869    0.0000 H   0  0  0  0  0  0  0  0  0  0  0  0
    8.2700   -4.0600    0.0000 H   0  0  0  0  0  0  0  0  0  0  0  0
   10.8872    1.7131    0.0000 H   0  0  0  0  0  0  0  0  0  0  0  0
   11.7341    1.9400    0.0000 H   0  0  0  0  0  0  0  0  0  0  0  0
   11.5072    2.7869    0.0000 H   0  0  0  0  0  0  0  0  0  0  0  0
   10.9512    3.7500    0.0000 H   0  0  0  0  0  0  0  0  0  0  0  0
   10.3312    4.3700    0.0000 H   0  0  0  0  0  0  0  0  0  0  0  0
    9.7112    3.7500    0.0000 H   0  0  0  0  0  0  0  0  0  0  0  0
    5.6910   -3.2131    0.0000 H   0  0  0  0  0  0  0  0  0  0  0  0
    5.4641   -4.0600    0.0000 H   0  0  0  0  0  0  0  0  0  0  0  0
    6.3110   -4.2869    0.0000 H   0  0  0  0  0  0  0  0  0  0  0  0
    8.0431   -3.2131    0.0000 H   0  0  0  0  0  0  0  0  0  0  0  0
   11.8078   -0.8577    0.0000 H   0  0  0  0  0  0  0  0  0  0  0  0
   11.4092   -0.1674    0.0000 H   0  0  0  0  0  0  0  0  0  0  0  0
    3.0044   -2.7250    0.0000 H   0  0  0  0  0  0  0  0  0  0  0  0
    3.8015   -2.7250    0.0000 H   0  0  0  0  0  0  0  0  0  0  0  0
   11.7341   -2.0600    0.0000 H   0  0  0  0  0  0  0  0  0  0  0  0
    2.0000   -2.0600    0.0000 H   0  0  0  0  0  0  0  0  0  0  0  0
  1 20  2  0  0  0  0 
  2 27  1  0  0  0  0 
  2 61  1  0  0  0  0 
  3 28  1  0  0  0  0 
  3 62  1  0  0  0  0 
  4  6  2  0  0  0  0 
  4  9  1  0  0  0  0 
  4 16  1  0  0  0  0 
  5  7  2  0  0  0  0 
  5  8  1  0  0  0  0 
  5 17  1  0  0  0  0 
  6 11  1  0  0  0  0 
  6 14  1  0  0  0  0 
  7 10  1  0  0  0  0 
  7 15  1  0  0  0  0 
  8 25  1  0  0  0  0 
  8 26  1  0  0  0  0 
  8 29  1  0  0  0  0 
  9 23  1  0  0  0  0 
  9 24  1  0  0  0  0 
  9 30  1  0  0  0  0 
 10 18  1  0  0  0  0 
 10 31  1  0  0  0  0 
 10 32  1  0  0  0  0 
 11 19  1  0  0  0  0 
 11 33  1  0  0  0  0 
 11 34  1  0  0  0  0 
 12 14  2  0  0  0  0 
 12 20  1  0  0  0  0 
 12 21  1  0  0  0  0 
 13 15  2  0  0  0  0 
 13 20  1  0  0  0  0 
 13 22  1  0  0  0  0 
 14 36  1  0  0  0  0 
 15 35  1  0  0  0  0 
 16 21  2  0  0  0  0 
 16 38  1  0  0  0  0 
 17 22  2  0  0  0  0 
 17 37  1  0  0  0  0 
 18 27  1  0  0  0  0 
 18 39  1  0  0  0  0 
 18 40  1  0  0  0  0 
 19 28  1  0  0  0  0 
 19 41  1  0  0  0  0 
 19 42  1  0  0  0  0 
 21 44  1  0  0  0  0 
 22 43  1  0  0  0  0 
 23 45  1  0  0  0  0 
 23 46  1  0  0  0  0 
 23 56  1  0  0  0  0 
 24 53  1  0  0  0  0 
 24 54  1  0  0  0  0 
 24 55  1  0  0  0  0 
 25 50  1  0  0  0  0 
 25 51  1  0  0  0  0 
 25 52  1  0  0  0  0 
 26 47  1  0  0  0  0 
 26 48  1  0  0  0  0 
 26 49  1  0  0  0  0 
 27 57  1  0  0  0  0 
 27 58  1  0  0  0  0 
 28 59  1  0  0  0  0 
 28 60  1  0  0  0  0 
M  END
> <cdk:Title>
54288463

> <cdk:Remark>
null

> <PUBCHEM_COMPOUND_CID>
54288463

> <PUBCHEM_COMPOUND_CANONICALIZED>
1

> <PUBCHEM_CACTVS_COMPLEXITY>
419

> <PUBCHEM_CACTVS_HBOND_ACCEPTOR>
3

> <PUBCHEM_CACTVS_HBOND_DONOR>
2

> <PUBCHEM_CACTVS_ROTATABLE_BOND>
10

> <PUBCHEM_CACTVS_SUBSKEYS>
AAADcfB4MAAAAAAAAAAAAAAAAAAAAAAAAAAwYAAAAAAAAAABQAAAGgAACAAADQSgmAIyAIAAAgCIAqBSAAACAAAkAAAIiAEAAMgIMDKAFRCAYQAkgAAIiYeIyPCOwAACAAAQAACAAAQAACAAAAAAAAAAAA==

> <PUBCHEM_IUPAC_OPENEYE_NAME>
bis[3-(3-hydroxypropyl)-4-isopropyl-phenyl]methanone

> <PUBCHEM_IUPAC_CAS_NAME>
bis[3-(3-hydroxypropyl)-4-propan-2-ylphenyl]methanone

> <PUBCHEM_IUPAC_NAME>
bis[3-(3-hydroxypropyl)-4-propan-2-ylphenyl]methanone

> <PUBCHEM_IUPAC_SYSTEMATIC_NAME>
bis[3-(3-oxidanylpropyl)-4-propan-2-yl-phenyl]methanone

> <PUBCHEM_IUPAC_TRADITIONAL_NAME>
bis[3-(3-hydroxypropyl)-4-isopropyl-phenyl]methanone

> <PUBCHEM_IUPAC_INCHI>
InChI=1S/C25H34O3/c1-17(2)23-11-9-21(15-19(23)7-5-13-26)25(28)22-10-12-24(18(3)4)20(16-22)8-6-14-27/h9-12,15-18,26-27H,5-8,13-14H2,1-4H3

> <PUBCHEM_IUPAC_INCHIKEY>
RVVJNYDZQXLYAZ-UHFFFAOYSA-N

> <PUBCHEM_XLOGP3_AA>
5.4

> <PUBCHEM_EXACT_MASS>
382.250795

> <PUBCHEM_MOLECULAR_FORMULA>
C25H34O3

> <PUBCHEM_MOLECULAR_WEIGHT>
382.53566

> <PUBCHEM_OPENEYE_CAN_SMILES>
CC(C)C1=C(C=C(C=C1)C(=O)C2=CC(=C(C=C2)C(C)C)CCCO)CCCO

> <PUBCHEM_OPENEYE_ISO_SMILES>
CC(C)C1=C(C=C(C=C1)C(=O)C2=CC(=C(C=C2)C(C)C)CCCO)CCCO

> <PUBCHEM_CACTVS_TPSA>
57.5

> <PUBCHEM_MONOISOTOPIC_WEIGHT>
382.250795

> <PUBCHEM_TOTAL_CHARGE>
0

> <PUBCHEM_HEAVY_ATOM_COUNT>
28

> <PUBCHEM_ATOM_DEF_STEREO_COUNT>
0

> <PUBCHEM_ATOM_UDEF_STEREO_COUNT>
0

> <PUBCHEM_BOND_DEF_STEREO_COUNT>
0

> <PUBCHEM_BOND_UDEF_STEREO_COUNT>
0

> <PUBCHEM_ISOTOPIC_ATOM_COUNT>
0

> <PUBCHEM_COMPONENT_COUNT>
1

> <PUBCHEM_CACTVS_TAUTO_COUNT>
14

> <PUBCHEM_COORDINATE_TYPE>
1

> <PUBCHEM_BONDANNOTATIONS>
12  14  8

$$$$
