8351491
  CDK     0202151410

 47 49  0  0  0  0  0  0  0  0999 V2000
    7.0255   -1.6012    0.0000 S   0  0  0  0  0  0  0  0  0  0  0  0
    5.2460   -1.5079    0.0000 S   0  0  0  0  0  0  0  0  0  0  0  0
   14.0013    1.4921    0.0000 O   0  0  0  0  0  0  0  0  0  0  0  0
   10.4896    0.3988    0.0000 O   0  0  0  0  0  0  0  0  0  0  0  0
    8.7576   -2.6012    0.0000 O   0  0  0  0  0  0  0  0  0  0  0  0
   12.2217    0.3988    0.0000 N   0  0  0  0  0  0  0  0  0  0  0  0
    9.6236   -1.1012    0.0000 N   0  0  0  0  0  0  0  0  0  0  0  0
    3.5823   -0.8693    0.0000 N   0  0  0  0  0  0  0  0  0  0  0  0
    5.0768    0.1012    0.0000 N   0  0  0  0  0  0  0  0  0  0  0  0
    6.0550   -0.1067    0.0000 N   0  0  0  0  0  0  0  0  0  0  0  0
   11.3557   -1.1012    0.0000 C   0  0  0  0  0  0  0  0  0  0  0  0
   10.4896   -1.6012    0.0000 C   0  0  0  0  0  0  0  0  0  0  0  0
   12.2217    1.3988    0.0000 C   0  0  0  0  0  0  0  0  0  0  0  0
   11.3557   -0.1012    0.0000 C   0  0  0  0  0  0  0  0  0  0  0  0
   12.2217   -1.6012    0.0000 C   0  0  0  0  0  0  0  0  0  0  0  0
   10.4896   -2.6012    0.0000 C   0  0  0  0  0  0  0  0  0  0  0  0
   13.0877    1.8988    0.0000 C   0  0  0  0  0  0  0  0  0  0  0  0
   12.2217   -2.6012    0.0000 C   0  0  0  0  0  0  0  0  0  0  0  0
   11.3557   -3.1012    0.0000 C   0  0  0  0  0  0  0  0  0  0  0  0
    8.7576   -1.6012    0.0000 C   0  0  0  0  0  0  0  0  0  0  0  0
   13.1922    2.8933    0.0000 C   0  0  0  0  0  0  0  0  0  0  0  0
    7.8916   -1.1012    0.0000 C   0  0  0  0  0  0  0  0  0  0  0  0
   14.1704    3.1012    0.0000 C   0  0  0  0  0  0  0  0  0  0  0  0
   14.6704    2.2352    0.0000 C   0  0  0  0  0  0  0  0  0  0  0  0
    2.9945   -0.0603    0.0000 C   0  0  0  0  0  0  0  0  0  0  0  0
    4.5768   -0.7648    0.0000 C   0  0  0  0  0  0  0  0  0  0  0  0
    6.1595   -1.1012    0.0000 C   0  0  0  0  0  0  0  0  0  0  0  0
    2.0000   -0.1648    0.0000 C   0  0  0  0  0  0  0  0  0  0  0  0
   12.0096    1.9814    0.0000 H   0  0  0  0  0  0  0  0  0  0  0  0
   11.6111    1.2911    0.0000 H   0  0  0  0  0  0  0  0  0  0  0  0
   12.7586    0.0888    0.0000 H   0  0  0  0  0  0  0  0  0  0  0  0
   12.7586   -1.2912    0.0000 H   0  0  0  0  0  0  0  0  0  0  0  0
    9.9527   -2.9112    0.0000 H   0  0  0  0  0  0  0  0  0  0  0  0
    9.6236   -0.4812    0.0000 H   0  0  0  0  0  0  0  0  0  0  0  0
   12.7586   -2.9112    0.0000 H   0  0  0  0  0  0  0  0  0  0  0  0
   11.3557   -3.7212    0.0000 H   0  0  0  0  0  0  0  0  0  0  0  0
   12.7315    3.3082    0.0000 H   0  0  0  0  0  0  0  0  0  0  0  0
    8.2901   -0.6263    0.0000 H   0  0  0  0  0  0  0  0  0  0  0  0
    7.4930   -0.6263    0.0000 H   0  0  0  0  0  0  0  0  0  0  0  0
   14.4226    3.6676    0.0000 H   0  0  0  0  0  0  0  0  0  0  0  0
    3.5518    0.2115    0.0000 H   0  0  0  0  0  0  0  0  0  0  0  0
    2.8236    0.5357    0.0000 H   0  0  0  0  0  0  0  0  0  0  0  0
   15.2870    2.1704    0.0000 H   0  0  0  0  0  0  0  0  0  0  0  0
    3.3301   -1.4357    0.0000 H   0  0  0  0  0  0  0  0  0  0  0  0
    1.9352    0.4518    0.0000 H   0  0  0  0  0  0  0  0  0  0  0  0
    1.3834   -0.2297    0.0000 H   0  0  0  0  0  0  0  0  0  0  0  0
    2.0648   -0.7815    0.0000 H   0  0  0  0  0  0  0  0  0  0  0  0
  1 22  1  0  0  0  0 
  1 27  1  0  0  0  0 
  2 26  1  0  0  0  0 
  2 27  1  0  0  0  0 
  3 17  1  0  0  0  0 
  3 24  1  0  0  0  0 
  4 14  2  0  0  0  0 
  5 20  2  0  0  0  0 
  6 13  1  0  0  0  0 
  6 14  1  0  0  0  0 
  6 31  1  0  0  0  0 
  7 12  1  0  0  0  0 
  7 20  1  0  0  0  0 
  7 34  1  0  0  0  0 
  8 25  1  0  0  0  0 
  8 26  1  0  0  0  0 
  8 44  1  0  0  0  0 
  9 10  1  0  0  0  0 
  9 26  2  0  0  0  0 
 10 27  2  0  0  0  0 
 11 12  1  0  0  0  0 
 11 14  1  0  0  0  0 
 11 15  2  0  0  0  0 
 12 16  2  0  0  0  0 
 13 17  1  0  0  0  0 
 13 29  1  0  0  0  0 
 13 30  1  0  0  0  0 
 15 18  1  0  0  0  0 
 15 32  1  0  0  0  0 
 16 19  1  0  0  0  0 
 16 33  1  0  0  0  0 
 17 21  2  0  0  0  0 
 18 19  2  0  0  0  0 
 18 35  1  0  0  0  0 
 19 36  1  0  0  0  0 
 20 22  1  0  0  0  0 
 21 23  1  0  0  0  0 
 21 37  1  0  0  0  0 
 22 38  1  0  0  0  0 
 22 39  1  0  0  0  0 
 23 24  2  0  0  0  0 
 23 40  1  0  0  0  0 
 24 43  1  0  0  0  0 
 25 28  1  0  0  0  0 
 25 41  1  0  0  0  0 
 25 42  1  0  0  0  0 
 28 45  1  0  0  0  0 
 28 46  1  0  0  0  0 
 28 47  1  0  0  0  0 
M  END
> <cdk:Title>
8351491

> <cdk:Remark>
null

> <PUBCHEM_COMPOUND_CID>
8351491

> <PUBCHEM_COMPOUND_CANONICALIZED>
1

> <PUBCHEM_CACTVS_COMPLEXITY>
527

> <PUBCHEM_CACTVS_HBOND_ACCEPTOR>
8

> <PUBCHEM_CACTVS_HBOND_DONOR>
3

> <PUBCHEM_CACTVS_ROTATABLE_BOND>
9

> <PUBCHEM_CACTVS_SUBSKEYS>
AAADceB7sABgAAAAAAAAAAAAAAAAAWJAAAAwAAAAAAAAAAAB8AAAHgQYAAAADAzl2Aaz1ILABEiuAq1S8ACSCQJlIhkNiIGObMiOJjrE/buHOaj01hPY6ceYmQKOAAAAAAACAAAAAAAAAAQAAAAAAAAAAA==

> <PUBCHEM_IUPAC_OPENEYE_NAME>
2-[[2-[[5-(ethylamino)-1,3,4-thiadiazol-2-yl]sulfanyl]acetyl]amino]-N-(2-furylmethyl)benzamide

> <PUBCHEM_IUPAC_CAS_NAME>
2-[[2-[[5-(ethylamino)-1,3,4-thiadiazol-2-yl]thio]-1-oxoethyl]amino]-N-(2-furanylmethyl)benzamide

> <PUBCHEM_IUPAC_NAME>
2-[[2-[[5-(ethylamino)-1,3,4-thiadiazol-2-yl]sulfanyl]acetyl]amino]-N-(furan-2-ylmethyl)benzamide

> <PUBCHEM_IUPAC_SYSTEMATIC_NAME>
2-[2-[[5-(ethylamino)-1,3,4-thiadiazol-2-yl]sulfanyl]ethanoylamino]-N-(furan-2-ylmethyl)benzamide

> <PUBCHEM_IUPAC_TRADITIONAL_NAME>
2-[[2-[[5-(ethylamino)-1,3,4-thiadiazol-2-yl]thio]acetyl]amino]-N-(2-furfuryl)benzamide

> <PUBCHEM_IUPAC_INCHI>
InChI=1S/C18H19N5O3S2/c1-2-19-17-22-23-18(28-17)27-11-15(24)21-14-8-4-3-7-13(14)16(25)20-10-12-6-5-9-26-12/h3-9H,2,10-11H2,1H3,(H,19,22)(H,20,25)(H,21,24)

> <PUBCHEM_IUPAC_INCHIKEY>
WXOCFBOTZYRXSF-UHFFFAOYSA-N

> <PUBCHEM_XLOGP3_AA>
3.2

> <PUBCHEM_EXACT_MASS>
417.092931

> <PUBCHEM_MOLECULAR_FORMULA>
C18H19N5O3S2

> <PUBCHEM_MOLECULAR_WEIGHT>
417.50516

> <PUBCHEM_OPENEYE_CAN_SMILES>
CCNC1=NN=C(S1)SCC(=O)NC2=CC=CC=C2C(=O)NCC3=CC=CO3

> <PUBCHEM_OPENEYE_ISO_SMILES>
CCNC1=NN=C(S1)SCC(=O)NC2=CC=CC=C2C(=O)NCC3=CC=CO3

> <PUBCHEM_CACTVS_TPSA>
163

> <PUBCHEM_MONOISOTOPIC_WEIGHT>
417.092931

> <PUBCHEM_TOTAL_CHARGE>
0

> <PUBCHEM_HEAVY_ATOM_COUNT>
28

> <PUBCHEM_ATOM_DEF_STEREO_COUNT>
0

> <PUBCHEM_ATOM_UDEF_STEREO_COUNT>
0

> <PUBCHEM_BOND_DEF_STEREO_COUNT>
0

> <PUBCHEM_BOND_UDEF_STEREO_COUNT>
0

> <PUBCHEM_ISOTOPIC_ATOM_COUNT>
0

> <PUBCHEM_COMPONENT_COUNT>
1

> <PUBCHEM_CACTVS_TAUTO_COUNT>
32

> <PUBCHEM_COORDINATE_TYPE>
1

> <PUBCHEM_BONDANNOTATIONS>
10  27  8

$$$$
