40778163
  CDK     1229141516

 64 66  0  0  0  0  0  0  0  0999 V2000
    8.9282    1.5000    0.0000 O   0  0  0  0  0  0  0  0  0  0  0  0
    5.4641    4.5000    0.0000 O   0  0  0  0  0  0  0  0  0  0  0  0
    4.5981    3.0000    0.0000 O   0  0  0  0  0  0  0  0  0  0  0  0
    2.8660    2.0000    0.0000 O   0  0  0  0  0  0  0  0  0  0  0  0
    4.5981   -1.0000    0.0000 O   0  0  0  0  0  0  0  0  0  0  0  0
    2.8660    0.0000    0.0000 O   0  0  0  0  0  0  0  0  0  0  0  0
    6.3301   -3.0000    0.0000 O   0  0  0  0  0  0  0  0  0  0  0  0
    8.0622   -4.0000    0.0000 O   0  0  0  0  0  0  0  0  0  0  0  0
    7.1962    1.5000    0.0000 N   0  0  0  0  0  0  0  0  0  0  0  0
    6.3301    2.0000    0.0000 C   0  0  1  0  0  0  0  0  0  0  0  0
    6.3301    3.0000    0.0000 C   0  0  2  0  0  0  0  0  0  0  0  0
    7.1962    3.5000    0.0000 C   0  0  0  0  0  0  0  0  0  0  0  0
    8.0622    3.0000    0.0000 C   0  0  0  0  0  0  0  0  0  0  0  0
    8.0622    2.0000    0.0000 C   0  0  0  0  0  0  0  0  0  0  0  0
    5.4641    1.5000    0.0000 C   0  0  0  0  0  0  0  0  0  0  0  0
    7.1962    0.5000    0.0000 C   0  0  0  0  0  0  0  0  0  0  0  0
    5.4641    3.5000    0.0000 C   0  0  0  0  0  0  0  0  0  0  0  0
    8.0622    0.0000    0.0000 C   0  0  0  0  0  0  0  0  0  0  0  0
    5.4641    0.5000    0.0000 C   0  0  0  0  0  0  0  0  0  0  0  0
    4.5981    2.0000    0.0000 C   0  0  0  0  0  0  0  0  0  0  0  0
    8.0622   -1.0000    0.0000 C   0  0  0  0  0  0  0  0  0  0  0  0
    3.7320    1.5000    0.0000 C   0  0  0  0  0  0  0  0  0  0  0  0
    4.5981    0.0000    0.0000 C   0  0  0  0  0  0  0  0  0  0  0  0
    3.7320    0.5000    0.0000 C   0  0  0  0  0  0  0  0  0  0  0  0
    7.1962   -1.5000    0.0000 C   0  0  0  0  0  0  0  0  0  0  0  0
    8.9282   -1.5000    0.0000 C   0  0  0  0  0  0  0  0  0  0  0  0
    7.1962   -2.5000    0.0000 C   0  0  0  0  0  0  0  0  0  0  0  0
    8.9282   -2.5000    0.0000 C   0  0  0  0  0  0  0  0  0  0  0  0
    8.0622   -3.0000    0.0000 C   0  0  0  0  0  0  0  0  0  0  0  0
    2.8660    3.0000    0.0000 C   0  0  0  0  0  0  0  0  0  0  0  0
    3.7320   -1.5000    0.0000 C   0  0  0  0  0  0  0  0  0  0  0  0
    2.0000    0.5000    0.0000 C   0  0  0  0  0  0  0  0  0  0  0  0
    6.3301   -4.0000    0.0000 C   0  0  0  0  0  0  0  0  0  0  0  0
    8.9282   -4.5000    0.0000 C   0  0  0  0  0  0  0  0  0  0  0  0
    5.7932    2.3100    0.0000 H   0  0  0  0  0  0  0  0  0  0  0  0
    5.7932    2.6900    0.0000 H   0  0  0  0  0  0  0  0  0  0  0  0
    7.5947    3.9750    0.0000 H   0  0  0  0  0  0  0  0  0  0  0  0
    6.7976    3.9750    0.0000 H   0  0  0  0  0  0  0  0  0  0  0  0
    8.6728    2.8923    0.0000 H   0  0  0  0  0  0  0  0  0  0  0  0
    8.2742    3.5826    0.0000 H   0  0  0  0  0  0  0  0  0  0  0  0
    6.5856    0.6077    0.0000 H   0  0  0  0  0  0  0  0  0  0  0  0
    6.9841   -0.0826    0.0000 H   0  0  0  0  0  0  0  0  0  0  0  0
    8.6728   -0.1077    0.0000 H   0  0  0  0  0  0  0  0  0  0  0  0
    8.2742    0.5826    0.0000 H   0  0  0  0  0  0  0  0  0  0  0  0
    6.0010    0.1900    0.0000 H   0  0  0  0  0  0  0  0  0  0  0  0
    4.5981    2.6200    0.0000 H   0  0  0  0  0  0  0  0  0  0  0  0
    6.6592   -1.1900    0.0000 H   0  0  0  0  0  0  0  0  0  0  0  0
    9.4651   -1.1900    0.0000 H   0  0  0  0  0  0  0  0  0  0  0  0
    9.4651   -2.8100    0.0000 H   0  0  0  0  0  0  0  0  0  0  0  0
    3.4860    3.0000    0.0000 H   0  0  0  0  0  0  0  0  0  0  0  0
    2.8660    3.6200    0.0000 H   0  0  0  0  0  0  0  0  0  0  0  0
    2.2460    3.0000    0.0000 H   0  0  0  0  0  0  0  0  0  0  0  0
    3.4220   -0.9631    0.0000 H   0  0  0  0  0  0  0  0  0  0  0  0
    3.1951   -1.8100    0.0000 H   0  0  0  0  0  0  0  0  0  0  0  0
    4.0420   -2.0369    0.0000 H   0  0  0  0  0  0  0  0  0  0  0  0
    2.3100    1.0369    0.0000 H   0  0  0  0  0  0  0  0  0  0  0  0
    1.4631    0.8100    0.0000 H   0  0  0  0  0  0  0  0  0  0  0  0
    1.6900   -0.0369    0.0000 H   0  0  0  0  0  0  0  0  0  0  0  0
    5.7101   -4.0000    0.0000 H   0  0  0  0  0  0  0  0  0  0  0  0
    6.3301   -4.6200    0.0000 H   0  0  0  0  0  0  0  0  0  0  0  0
    6.9501   -4.0000    0.0000 H   0  0  0  0  0  0  0  0  0  0  0  0
    8.6182   -5.0369    0.0000 H   0  0  0  0  0  0  0  0  0  0  0  0
    9.4651   -4.8100    0.0000 H   0  0  0  0  0  0  0  0  0  0  0  0
    9.2382   -3.9631    0.0000 H   0  0  0  0  0  0  0  0  0  0  0  0
  1 14  2  0  0  0  0 
  2 17  1  0  0  0  0 
  3 17  2  0  0  0  0 
  4 22  1  0  0  0  0 
  4 30  1  0  0  0  0 
  5 23  1  0  0  0  0 
  5 31  1  0  0  0  0 
  6 24  1  0  0  0  0 
  6 32  1  0  0  0  0 
  7 27  1  0  0  0  0 
  7 33  1  0  0  0  0 
  8 29  1  0  0  0  0 
  8 34  1  0  0  0  0 
  9 10  1  0  0  0  0 
  9 14  1  0  0  0  0 
  9 16  1  0  0  0  0 
 10 11  1  0  0  0  0 
 10 15  1  6  0  0  0 
 10 35  1  0  0  0  0 
 11 12  1  0  0  0  0 
 11 17  1  1  0  0  0 
 11 36  1  0  0  0  0 
 12 13  1  0  0  0  0 
 12 37  1  0  0  0  0 
 12 38  1  0  0  0  0 
 13 14  1  0  0  0  0 
 13 39  1  0  0  0  0 
 13 40  1  0  0  0  0 
 15 19  2  0  0  0  0 
 15 20  1  0  0  0  0 
 16 18  1  0  0  0  0 
 16 41  1  0  0  0  0 
 16 42  1  0  0  0  0 
 18 21  1  0  0  0  0 
 18 43  1  0  0  0  0 
 18 44  1  0  0  0  0 
 19 23  1  0  0  0  0 
 19 45  1  0  0  0  0 
 20 22  2  0  0  0  0 
 20 46  1  0  0  0  0 
 21 25  2  0  0  0  0 
 21 26  1  0  0  0  0 
 22 24  1  0  0  0  0 
 23 24  2  0  0  0  0 
 25 27  1  0  0  0  0 
 25 47  1  0  0  0  0 
 26 28  2  0  0  0  0 
 26 48  1  0  0  0  0 
 27 29  2  0  0  0  0 
 28 29  1  0  0  0  0 
 28 49  1  0  0  0  0 
 30 50  1  0  0  0  0 
 30 51  1  0  0  0  0 
 30 52  1  0  0  0  0 
 31 53  1  0  0  0  0 
 31 54  1  0  0  0  0 
 31 55  1  0  0  0  0 
 32 56  1  0  0  0  0 
 32 57  1  0  0  0  0 
 32 58  1  0  0  0  0 
 33 59  1  0  0  0  0 
 33 60  1  0  0  0  0 
 33 61  1  0  0  0  0 
 34 62  1  0  0  0  0 
 34 63  1  0  0  0  0 
 34 64  1  0  0  0  0 
M  CHG  1   2  -1
M  END
> <cdk:Title>
40778163

> <cdk:Remark>
null

> <PUBCHEM_COMPOUND_CID>
40778163

> <PUBCHEM_COMPOUND_CANONICALIZED>
1

> <PUBCHEM_CACTVS_COMPLEXITY>
656

> <PUBCHEM_CACTVS_HBOND_ACCEPTOR>
8

> <PUBCHEM_CACTVS_HBOND_DONOR>
0

> <PUBCHEM_CACTVS_ROTATABLE_BOND>
9

> <PUBCHEM_CACTVS_SUBSKEYS>
AAADceB6PAAAAAAAAAAAAAAAAAAAAAAAAAA8YIAAAAAAAAABQAAAHgAAAAAADSzBmAYyDoMABACIAiHSGACCCAAgIAAIiAEOjIgNJzqEsRuEMCpnxhWKqAe4//+eIAABCAAAQABAAAIQAACAAAAAAAAAAA==

> <PUBCHEM_IUPAC_OPENEYE_NAME>
(2S,3S)-1-[2-(3,4-dimethoxyphenyl)ethyl]-6-oxo-2-(3,4,5-trimethoxyphenyl)piperidine-3-carboxylate

> <PUBCHEM_IUPAC_CAS_NAME>
(2S,3S)-1-[2-(3,4-dimethoxyphenyl)ethyl]-6-oxo-2-(3,4,5-trimethoxyphenyl)-3-piperidinecarboxylate

> <PUBCHEM_IUPAC_NAME>
(2S,3S)-1-[2-(3,4-dimethoxyphenyl)ethyl]-6-oxo-2-(3,4,5-trimethoxyphenyl)piperidine-3-carboxylate

> <PUBCHEM_IUPAC_SYSTEMATIC_NAME>
(2S,3S)-1-[2-(3,4-dimethoxyphenyl)ethyl]-6-oxidanylidene-2-(3,4,5-trimethoxyphenyl)piperidine-3-carboxylate

> <PUBCHEM_IUPAC_TRADITIONAL_NAME>
(2S,3S)-1-homoveratryl-6-keto-2-(3,4,5-trimethoxyphenyl)nipecotate

> <PUBCHEM_IUPAC_INCHI>
InChI=1S/C25H31NO8/c1-30-18-8-6-15(12-19(18)31-2)10-11-26-22(27)9-7-17(25(28)29)23(26)16-13-20(32-3)24(34-5)21(14-16)33-4/h6,8,12-14,17,23H,7,9-11H2,1-5H3,(H,28,29)/p-1/t17-,23+/m0/s1

> <PUBCHEM_IUPAC_INCHIKEY>
FNSZNRJQXVTBTA-GAJHUEQPSA-M

> <PUBCHEM_XLOGP3_AA>
3.3

> <PUBCHEM_EXACT_MASS>
472.197142

> <PUBCHEM_MOLECULAR_FORMULA>
C25H30NO8-

> <PUBCHEM_MOLECULAR_WEIGHT>
472.5076

> <PUBCHEM_OPENEYE_CAN_SMILES>
COC1=C(C=C(C=C1)CCN2C(C(CCC2=O)C(=O)[O-])C3=CC(=C(C(=C3)OC)OC)OC)OC

> <PUBCHEM_OPENEYE_ISO_SMILES>
COC1=C(C=C(C=C1)CCN2[C@@H]([C@H](CCC2=O)C(=O)[O-])C3=CC(=C(C(=C3)OC)OC)OC)OC

> <PUBCHEM_CACTVS_TPSA>
107

> <PUBCHEM_MONOISOTOPIC_WEIGHT>
472.197142

> <PUBCHEM_TOTAL_CHARGE>
-1

> <PUBCHEM_HEAVY_ATOM_COUNT>
34

> <PUBCHEM_ATOM_DEF_STEREO_COUNT>
2

> <PUBCHEM_ATOM_UDEF_STEREO_COUNT>
0

> <PUBCHEM_BOND_DEF_STEREO_COUNT>
0

> <PUBCHEM_BOND_UDEF_STEREO_COUNT>
0

> <PUBCHEM_ISOTOPIC_ATOM_COUNT>
0

> <PUBCHEM_COMPONENT_COUNT>
1

> <PUBCHEM_CACTVS_TAUTO_COUNT>
2

> <PUBCHEM_COORDINATE_TYPE>
1

> <PUBCHEM_BONDANNOTATIONS>
10  15  6

$$$$
19502787
  CDK     1229141516

 45 47  0  0  0  0  0  0  0  0999 V2000
    7.6698    1.1092    0.0000 O   0  0  0  0  0  0  0  0  0  0  0  0
   11.7980    2.5999    0.0000 O   0  0  0  0  0  0  0  0  0  0  0  0
   10.9320    1.0999    0.0000 O   0  0  0  0  0  0  0  0  0  0  0  0
    4.5981   -0.3023    0.0000 N   0  0  0  0  0  0  0  0  0  0  0  0
    4.7026    0.6922    0.0000 N   0  0  0  0  0  0  0  0  0  0  0  0
    6.0875    1.8137    0.0000 N   0  0  0  0  0  0  0  0  0  0  0  0
    8.4833    2.9363    0.0000 N   0  0  0  0  0  0  0  0  0  0  0  0
    8.9833    3.8023    0.0000 N   0  0  0  0  0  0  0  0  0  0  0  0
    3.7320   -0.8023    0.0000 C   0  0  0  0  0  0  0  0  0  0  0  0
    5.5116   -0.7090    0.0000 C   0  0  0  0  0  0  0  0  0  0  0  0
    3.7320   -1.8023    0.0000 C   0  0  0  0  0  0  0  0  0  0  0  0
    5.6808    0.9001    0.0000 C   0  0  0  0  0  0  0  0  0  0  0  0
    6.1808    0.0341    0.0000 C   0  0  0  0  0  0  0  0  0  0  0  0
    2.8660   -2.3023    0.0000 C   0  0  0  0  0  0  0  0  0  0  0  0
    5.7195   -1.6872    0.0000 C   0  0  0  0  0  0  0  0  0  0  0  0
    4.5981   -2.3023    0.0000 C   0  0  0  0  0  0  0  0  0  0  0  0
    2.8660   -3.3023    0.0000 C   0  0  0  0  0  0  0  0  0  0  0  0
    7.4888    2.8318    0.0000 C   0  0  0  0  0  0  0  0  0  0  0  0
    7.0820    1.9182    0.0000 C   0  0  0  0  0  0  0  0  0  0  0  0
    4.5981   -3.3023    0.0000 C   0  0  0  0  0  0  0  0  0  0  0  0
    3.7320   -3.8023    0.0000 C   0  0  0  0  0  0  0  0  0  0  0  0
    2.0000   -3.8023    0.0000 C   0  0  0  0  0  0  0  0  0  0  0  0
    9.1524    2.1931    0.0000 C   0  0  0  0  0  0  0  0  0  0  0  0
   10.0659    2.5999    0.0000 C   0  0  0  0  0  0  0  0  0  0  0  0
    9.9614    3.5944    0.0000 C   0  0  0  0  0  0  0  0  0  0  0  0
   10.9320    2.0999    0.0000 C   0  0  0  0  0  0  0  0  0  0  0  0
    3.5200   -0.2197    0.0000 H   0  0  0  0  0  0  0  0  0  0  0  0
    3.1215   -0.9100    0.0000 H   0  0  0  0  0  0  0  0  0  0  0  0
    6.7974   -0.0307    0.0000 H   0  0  0  0  0  0  0  0  0  0  0  0
    2.3291   -1.9923    0.0000 H   0  0  0  0  0  0  0  0  0  0  0  0
    5.1131   -1.8161    0.0000 H   0  0  0  0  0  0  0  0  0  0  0  0
    5.8484   -2.2936    0.0000 H   0  0  0  0  0  0  0  0  0  0  0  0
    6.3260   -1.5583    0.0000 H   0  0  0  0  0  0  0  0  0  0  0  0
    5.1350   -1.9923    0.0000 H   0  0  0  0  0  0  0  0  0  0  0  0
    5.7231    2.3153    0.0000 H   0  0  0  0  0  0  0  0  0  0  0  0
    7.5320    3.4502    0.0000 H   0  0  0  0  0  0  0  0  0  0  0  0
    6.8872    2.9817    0.0000 H   0  0  0  0  0  0  0  0  0  0  0  0
    5.1350   -3.6123    0.0000 H   0  0  0  0  0  0  0  0  0  0  0  0
    3.7320   -4.4223    0.0000 H   0  0  0  0  0  0  0  0  0  0  0  0
    1.6900   -3.2654    0.0000 H   0  0  0  0  0  0  0  0  0  0  0  0
    1.4631   -4.1123    0.0000 H   0  0  0  0  0  0  0  0  0  0  0  0
    2.3100   -4.3392    0.0000 H   0  0  0  0  0  0  0  0  0  0  0  0
    9.0235    1.5867    0.0000 H   0  0  0  0  0  0  0  0  0  0  0  0
   10.4222    4.0092    0.0000 H   0  0  0  0  0  0  0  0  0  0  0  0
   12.3349    2.2899    0.0000 H   0  0  0  0  0  0  0  0  0  0  0  0
  1 19  2  0  0  0  0 
  2 26  1  0  0  0  0 
  2 45  1  0  0  0  0 
  3 26  2  0  0  0  0 
  4  5  1  0  0  0  0 
  4  9  1  0  0  0  0 
  4 10  1  0  0  0  0 
  5 12  2  0  0  0  0 
  6 12  1  0  0  0  0 
  6 19  1  0  0  0  0 
  6 35  1  0  0  0  0 
  7  8  1  0  0  0  0 
  7 18  1  0  0  0  0 
  7 23  1  0  0  0  0 
  8 25  2  0  0  0  0 
  9 11  1  0  0  0  0 
  9 27  1  0  0  0  0 
  9 28  1  0  0  0  0 
 10 13  2  0  0  0  0 
 10 15  1  0  0  0  0 
 11 14  1  0  0  0  0 
 11 16  2  0  0  0  0 
 12 13  1  0  0  0  0 
 13 29  1  0  0  0  0 
 14 17  2  0  0  0  0 
 14 30  1  0  0  0  0 
 15 31  1  0  0  0  0 
 15 32  1  0  0  0  0 
 15 33  1  0  0  0  0 
 16 20  1  0  0  0  0 
 16 34  1  0  0  0  0 
 17 21  1  0  0  0  0 
 17 22  1  0  0  0  0 
 18 19  1  0  0  0  0 
 18 36  1  0  0  0  0 
 18 37  1  0  0  0  0 
 20 21  2  0  0  0  0 
 20 38  1  0  0  0  0 
 21 39  1  0  0  0  0 
 22 40  1  0  0  0  0 
 22 41  1  0  0  0  0 
 22 42  1  0  0  0  0 
 23 24  2  0  0  0  0 
 23 43  1  0  0  0  0 
 24 25  1  0  0  0  0 
 24 26  1  0  0  0  0 
 25 44  1  0  0  0  0 
M  END
> <cdk:Title>
19502787

> <cdk:Remark>
null

> <PUBCHEM_COMPOUND_CID>
19502787

> <PUBCHEM_COMPOUND_CANONICALIZED>
1

> <PUBCHEM_CACTVS_COMPLEXITY>
517

> <PUBCHEM_CACTVS_HBOND_ACCEPTOR>
5

> <PUBCHEM_CACTVS_HBOND_DONOR>
2

> <PUBCHEM_CACTVS_ROTATABLE_BOND>
6

> <PUBCHEM_CACTVS_SUBSKEYS>
AAADceB7sAAAAAAAAAAAAAAAAAAAAWLAAAAwAAAAAAAAAAAB8AAAHgAYCAAADAjBngQ/uJLIAgCqAzf3fACSBAI1ggAd2CG4bNiIZKrA2fGU5IhynQLI2McQgEAOAAACAAAAAAAAAAQAAAAAAAAAAAAAAA==

> <PUBCHEM_IUPAC_OPENEYE_NAME>
1-[2-[[5-methyl-1-(m-tolylmethyl)pyrazol-3-yl]amino]-2-oxo-ethyl]pyrazole-4-carboxylic acid

> <PUBCHEM_IUPAC_CAS_NAME>
1-[2-[[5-methyl-1-[(3-methylphenyl)methyl]-3-pyrazolyl]amino]-2-oxoethyl]-4-pyrazolecarboxylic acid

> <PUBCHEM_IUPAC_NAME>
1-[2-[[5-methyl-1-[(3-methylphenyl)methyl]pyrazol-3-yl]amino]-2-oxoethyl]pyrazole-4-carboxylic acid

> <PUBCHEM_IUPAC_SYSTEMATIC_NAME>
1-[2-[[5-methyl-1-[(3-methylphenyl)methyl]pyrazol-3-yl]amino]-2-oxidanylidene-ethyl]pyrazole-4-carboxylic acid

> <PUBCHEM_IUPAC_TRADITIONAL_NAME>
1-[2-keto-2-[[5-methyl-1-(3-methylbenzyl)pyrazol-3-yl]amino]ethyl]pyrazole-4-carboxylic acid

> <PUBCHEM_IUPAC_INCHI>
InChI=1S/C18H19N5O3/c1-12-4-3-5-14(6-12)9-23-13(2)7-16(21-23)20-17(24)11-22-10-15(8-19-22)18(25)26/h3-8,10H,9,11H2,1-2H3,(H,25,26)(H,20,21,24)

> <PUBCHEM_IUPAC_INCHIKEY>
OVGCLMAUYYGYIF-UHFFFAOYSA-N

> <PUBCHEM_XLOGP3_AA>
1.8

> <PUBCHEM_EXACT_MASS>
353.148789

> <PUBCHEM_MOLECULAR_FORMULA>
C18H19N5O3

> <PUBCHEM_MOLECULAR_WEIGHT>
353.37516

> <PUBCHEM_OPENEYE_CAN_SMILES>
CC1=CC(=CC=C1)CN2C(=CC(=N2)NC(=O)CN3C=C(C=N3)C(=O)O)C

> <PUBCHEM_OPENEYE_ISO_SMILES>
CC1=CC(=CC=C1)CN2C(=CC(=N2)NC(=O)CN3C=C(C=N3)C(=O)O)C

> <PUBCHEM_CACTVS_TPSA>
102

> <PUBCHEM_MONOISOTOPIC_WEIGHT>
353.148789

> <PUBCHEM_TOTAL_CHARGE>
0

> <PUBCHEM_HEAVY_ATOM_COUNT>
26

> <PUBCHEM_ATOM_DEF_STEREO_COUNT>
0

> <PUBCHEM_ATOM_UDEF_STEREO_COUNT>
0

> <PUBCHEM_BOND_DEF_STEREO_COUNT>
0

> <PUBCHEM_BOND_UDEF_STEREO_COUNT>
0

> <PUBCHEM_ISOTOPIC_ATOM_COUNT>
0

> <PUBCHEM_COMPONENT_COUNT>
1

> <PUBCHEM_CACTVS_TAUTO_COUNT>
10

> <PUBCHEM_COORDINATE_TYPE>
1

> <PUBCHEM_BONDANNOTATIONS>
10  13  8

$$$$
59792844
  CDK     1229141516

 52 54  0  0  0  0  0  0  0  0999 V2000
    3.7111    1.8156    0.0000 S   0  0  0  0  0  0  0  0  0  0  0  0
    4.1418    4.4574    0.0000 O   0  0  0  0  0  0  0  0  0  0  0  0
    2.0314   -2.8802    0.0000 O   0  0  0  0  0  0  0  0  0  0  0  0
    5.4202    6.7738    0.0000 O   0  0  0  0  0  0  0  0  0  0  0  0
    3.7260    6.4137    0.0000 O   0  0  0  0  0  0  0  0  0  0  0  0
    3.8680   -1.8857    0.0000 N   0  0  0  0  0  0  0  0  0  0  0  0
    3.7635   -2.8802    0.0000 C   0  0  0  0  0  0  0  0  0  0  0  0
    3.1249   -1.2166    0.0000 C   0  0  0  0  0  0  0  0  0  0  0  0
    4.8462   -1.6778    0.0000 C   0  0  0  0  0  0  0  0  0  0  0  0
    4.6771   -3.2870    0.0000 C   0  0  0  0  0  0  0  0  0  0  0  0
    2.8975   -3.3802    0.0000 C   0  0  0  0  0  0  0  0  0  0  0  0
    3.3328   -0.2384    0.0000 C   0  0  0  0  0  0  0  0  0  0  0  0
    5.3462   -2.5438    0.0000 C   0  0  0  0  0  0  0  0  0  0  0  0
    2.8975   -4.3802    0.0000 C   0  0  0  0  0  0  0  0  0  0  0  0
    2.7976    1.4088    0.0000 C   0  0  0  0  0  0  0  0  0  0  0  0
    2.5896    0.4307    0.0000 C   0  0  0  0  0  0  0  0  0  0  0  0
    3.6066    2.8101    0.0000 C   0  0  0  0  0  0  0  0  0  0  0  0
    4.3497    3.4792    0.0000 C   0  0  0  0  0  0  0  0  0  0  0  0
    3.7635   -4.8802    0.0000 C   0  0  0  0  0  0  0  0  0  0  0  0
    2.0314   -4.8802    0.0000 C   0  0  0  0  0  0  0  0  0  0  0  0
    2.1284    2.1520    0.0000 C   0  0  0  0  0  0  0  0  0  0  0  0
    2.6284    3.0180    0.0000 C   0  0  0  0  0  0  0  0  0  0  0  0
    2.8975   -6.3802    0.0000 C   0  0  0  0  0  0  0  0  0  0  0  0
    4.8850    5.1265    0.0000 C   0  0  3  0  0  0  0  0  0  0  0  0
    3.7635   -5.8802    0.0000 C   0  0  0  0  0  0  0  0  0  0  0  0
    2.0314   -5.8802    0.0000 C   0  0  0  0  0  0  0  0  0  0  0  0
    5.8360    4.8175    0.0000 C   0  0  0  0  0  0  0  0  0  0  0  0
    2.8975   -7.3802    0.0000 C   0  0  0  0  0  0  0  0  0  0  0  0
    4.6771    6.1047    0.0000 C   0  0  0  0  0  0  0  0  0  0  0  0
    2.5500   -0.9843    0.0000 H   0  0  0  0  0  0  0  0  0  0  0  0
    2.7963   -1.7424    0.0000 H   0  0  0  0  0  0  0  0  0  0  0  0
    5.0984   -1.1114    0.0000 H   0  0  0  0  0  0  0  0  0  0  0  0
    4.8060   -3.8934    0.0000 H   0  0  0  0  0  0  0  0  0  0  0  0
    3.9224   -0.0468    0.0000 H   0  0  0  0  0  0  0  0  0  0  0  0
    5.9628   -2.6086    0.0000 H   0  0  0  0  0  0  0  0  0  0  0  0
    2.0000    0.2391    0.0000 H   0  0  0  0  0  0  0  0  0  0  0  0
    4.6783    2.9534    0.0000 H   0  0  0  0  0  0  0  0  0  0  0  0
    4.9246    3.7115    0.0000 H   0  0  0  0  0  0  0  0  0  0  0  0
    4.3004   -4.5702    0.0000 H   0  0  0  0  0  0  0  0  0  0  0  0
    1.4945   -4.5702    0.0000 H   0  0  0  0  0  0  0  0  0  0  0  0
    1.5118    2.0872    0.0000 H   0  0  0  0  0  0  0  0  0  0  0  0
    2.3763    3.5844    0.0000 H   0  0  0  0  0  0  0  0  0  0  0  0
    4.2953    5.3181    0.0000 H   0  0  0  0  0  0  0  0  0  0  0  0
    4.3004   -6.1902    0.0000 H   0  0  0  0  0  0  0  0  0  0  0  0
    1.4945   -6.1902    0.0000 H   0  0  0  0  0  0  0  0  0  0  0  0
    5.6444    4.2278    0.0000 H   0  0  0  0  0  0  0  0  0  0  0  0
    6.4257    4.6259    0.0000 H   0  0  0  0  0  0  0  0  0  0  0  0
    6.0276    5.4072    0.0000 H   0  0  0  0  0  0  0  0  0  0  0  0
    2.2775   -7.3802    0.0000 H   0  0  0  0  0  0  0  0  0  0  0  0
    2.8975   -8.0002    0.0000 H   0  0  0  0  0  0  0  0  0  0  0  0
    3.5175   -7.3802    0.0000 H   0  0  0  0  0  0  0  0  0  0  0  0
    5.2913    7.3802    0.0000 H   0  0  0  0  0  0  0  0  0  0  0  0
  1 15  1  0  0  0  0 
  1 17  1  0  0  0  0 
  2 18  1  0  0  0  0 
  2 24  1  0  0  0  0 
  3 11  2  0  0  0  0 
  4 29  1  0  0  0  0 
  4 52  1  0  0  0  0 
  5 29  2  0  0  0  0 
  6  7  1  0  0  0  0 
  6  8  1  0  0  0  0 
  6  9  1  0  0  0  0 
  7 10  2  0  0  0  0 
  7 11  1  0  0  0  0 
  8 12  1  0  0  0  0 
  8 30  1  0  0  0  0 
  8 31  1  0  0  0  0 
  9 13  2  0  0  0  0 
  9 32  1  0  0  0  0 
 10 13  1  0  0  0  0 
 10 33  1  0  0  0  0 
 11 14  1  0  0  0  0 
 12 16  2  0  0  0  0 
 12 34  1  0  0  0  0 
 13 35  1  0  0  0  0 
 14 19  2  0  0  0  0 
 14 20  1  0  0  0  0 
 15 16  1  0  0  0  0 
 15 21  2  0  0  0  0 
 16 36  1  0  0  0  0 
 17 18  1  0  0  0  0 
 17 22  2  0  0  0  0 
 18 37  1  0  0  0  0 
 18 38  1  0  0  0  0 
 19 25  1  0  0  0  0 
 19 39  1  0  0  0  0 
 20 26  2  0  0  0  0 
 20 40  1  0  0  0  0 
 21 22  1  0  0  0  0 
 21 41  1  0  0  0  0 
 22 42  1  0  0  0  0 
 23 25  2  0  0  0  0 
 23 26  1  0  0  0  0 
 23 28  1  0  0  0  0 
 24 27  1  0  0  0  0 
 24 29  1  0  0  0  0 
 24 43  1  0  0  0  0 
 25 44  1  0  0  0  0 
 26 45  1  0  0  0  0 
 27 46  1  0  0  0  0 
 27 47  1  0  0  0  0 
 27 48  1  0  0  0  0 
 28 49  1  0  0  0  0 
 28 50  1  0  0  0  0 
 28 51  1  0  0  0  0 
M  END
> <cdk:Title>
59792844

> <cdk:Remark>
null

> <PUBCHEM_COMPOUND_CID>
59792844

> <PUBCHEM_COMPOUND_CANONICALIZED>
1

> <PUBCHEM_CACTVS_COMPLEXITY>
587

> <PUBCHEM_CACTVS_HBOND_ACCEPTOR>
5

> <PUBCHEM_CACTVS_HBOND_DONOR>
1

> <PUBCHEM_CACTVS_ROTATABLE_BOND>
9

> <PUBCHEM_CACTVS_SUBSKEYS>
AAADceB6OABAAAAAAAAAAAAAAAAAAWJAAAAwAAAAAAAAAAAB8AAAHgQACAAADBzh3gY+iZMMFgisA7T3TAKDgKA3CjBI2Dn4bNgJJvLgtb2GcQhkwAHr6YeYycCOQAAAAAAAAACAAAAAAAAAAAAAAAAAAA==

> <PUBCHEM_IUPAC_OPENEYE_NAME>
2-[[5-[(E)-3-[2-(4-methylbenzoyl)pyrrol-1-yl]prop-1-enyl]-2-thienyl]methoxy]propanoic acid

> <PUBCHEM_IUPAC_CAS_NAME>
2-[[5-[(E)-3-[2-[(4-methylphenyl)-oxomethyl]-1-pyrrolyl]prop-1-enyl]-2-thiophenyl]methoxy]propanoic acid

> <PUBCHEM_IUPAC_NAME>
2-[[5-[(E)-3-[2-(4-methylbenzoyl)pyrrol-1-yl]prop-1-enyl]thiophen-2-yl]methoxy]propanoic acid

> <PUBCHEM_IUPAC_SYSTEMATIC_NAME>
2-[[5-[(E)-3-[2-(4-methylphenyl)carbonylpyrrol-1-yl]prop-1-enyl]thiophen-2-yl]methoxy]propanoic acid

> <PUBCHEM_IUPAC_TRADITIONAL_NAME>
2-[[5-[(E)-3-(2-p-toluoylpyrrol-1-yl)prop-1-enyl]-2-thienyl]methoxy]propionic acid

> <PUBCHEM_IUPAC_INCHI>
InChI=1S/C23H23NO4S/c1-16-7-9-18(10-8-16)22(25)21-6-4-14-24(21)13-3-5-19-11-12-20(29-19)15-28-17(2)23(26)27/h3-12,14,17H,13,15H2,1-2H3,(H,26,27)/b5-3+

> <PUBCHEM_IUPAC_INCHIKEY>
LCWGMAOWLBHVSI-HWKANZROSA-N

> <PUBCHEM_XLOGP3_AA>
4.3

> <PUBCHEM_EXACT_MASS>
409.134779

> <PUBCHEM_MOLECULAR_FORMULA>
C23H23NO4S

> <PUBCHEM_MOLECULAR_WEIGHT>
409.49802

> <PUBCHEM_OPENEYE_CAN_SMILES>
CC1=CC=C(C=C1)C(=O)C2=CC=CN2CC=CC3=CC=C(S3)COC(C)C(=O)O

> <PUBCHEM_OPENEYE_ISO_SMILES>
CC1=CC=C(C=C1)C(=O)C2=CC=CN2C/C=C/C3=CC=C(S3)COC(C)C(=O)O

> <PUBCHEM_CACTVS_TPSA>
96.8

> <PUBCHEM_MONOISOTOPIC_WEIGHT>
409.134779

> <PUBCHEM_TOTAL_CHARGE>
0

> <PUBCHEM_HEAVY_ATOM_COUNT>
29

> <PUBCHEM_ATOM_DEF_STEREO_COUNT>
0

> <PUBCHEM_ATOM_UDEF_STEREO_COUNT>
1

> <PUBCHEM_BOND_DEF_STEREO_COUNT>
1

> <PUBCHEM_BOND_UDEF_STEREO_COUNT>
0

> <PUBCHEM_ISOTOPIC_ATOM_COUNT>
0

> <PUBCHEM_COMPONENT_COUNT>
1

> <PUBCHEM_CACTVS_TAUTO_COUNT>
4

> <PUBCHEM_COORDINATE_TYPE>
1

> <PUBCHEM_BONDANNOTATIONS>
1  15  8

$$$$
34637812
  CDK     1229141516

 38 40  0  0  0  0  0  0  0  0999 V2000
    8.9757    0.2853    0.0000 S   0  0  0  0  0  0  0  0  0  0  0  0
    2.0000   -0.8080    0.0000 F   0  0  0  0  0  0  0  0  0  0  0  0
    2.8660   -2.3080    0.0000 F   0  0  0  0  0  0  0  0  0  0  0  0
    9.5516    2.8080    0.0000 O   0  0  0  0  0  0  0  0  0  0  0  0
    3.7320   -0.8080    0.0000 O   0  0  0  0  0  0  0  0  0  0  0  0
    8.1667    1.6865    0.0000 N   0  0  0  0  0  0  0  0  0  0  0  0
    7.1962    0.1920    0.0000 N   0  0  0  0  0  0  0  0  0  0  0  0
    6.3301    0.6920    0.0000 N   0  0  0  0  0  0  0  0  0  0  0  0
    9.6448    1.0284    0.0000 C   0  0  2  0  0  0  0  0  0  0  0  0
   10.6394    0.9239    0.0000 C   0  0  0  0  0  0  0  0  0  0  0  0
    9.1448    1.8944    0.0000 C   0  0  0  0  0  0  0  0  0  0  0  0
   11.0461    0.0103    0.0000 C   0  0  0  0  0  0  0  0  0  0  0  0
   11.2272    1.7329    0.0000 C   0  0  0  0  0  0  0  0  0  0  0  0
    8.0622    0.6920    0.0000 C   0  0  0  0  0  0  0  0  0  0  0  0
   12.0406   -0.0942    0.0000 C   0  0  0  0  0  0  0  0  0  0  0  0
   12.2217    1.6284    0.0000 C   0  0  0  0  0  0  0  0  0  0  0  0
   12.6284    0.7148    0.0000 C   0  0  0  0  0  0  0  0  0  0  0  0
    5.4641   -0.8080    0.0000 C   0  0  0  0  0  0  0  0  0  0  0  0
    4.5981   -1.3080    0.0000 C   0  0  0  0  0  0  0  0  0  0  0  0
    6.3301   -1.3080    0.0000 C   0  0  0  0  0  0  0  0  0  0  0  0
    5.4641    0.1920    0.0000 C   0  0  0  0  0  0  0  0  0  0  0  0
    4.5981   -2.3080    0.0000 C   0  0  0  0  0  0  0  0  0  0  0  0
    6.3301   -2.3080    0.0000 C   0  0  0  0  0  0  0  0  0  0  0  0
    5.4641   -2.8080    0.0000 C   0  0  0  0  0  0  0  0  0  0  0  0
    2.8660   -1.3080    0.0000 C   0  0  0  0  0  0  0  0  0  0  0  0
    9.9825    1.5484    0.0000 H   0  0  0  0  0  0  0  0  0  0  0  0
   10.6817   -0.4912    0.0000 H   0  0  0  0  0  0  0  0  0  0  0  0
   10.9750    2.2993    0.0000 H   0  0  0  0  0  0  0  0  0  0  0  0
   12.2928   -0.6606    0.0000 H   0  0  0  0  0  0  0  0  0  0  0  0
   12.5861    2.1300    0.0000 H   0  0  0  0  0  0  0  0  0  0  0  0
   13.2450    0.6500    0.0000 H   0  0  0  0  0  0  0  0  0  0  0  0
    7.1962   -0.4280    0.0000 H   0  0  0  0  0  0  0  0  0  0  0  0
    6.8671   -0.9980    0.0000 H   0  0  0  0  0  0  0  0  0  0  0  0
    4.9272    0.5020    0.0000 H   0  0  0  0  0  0  0  0  0  0  0  0
    4.0611   -2.6180    0.0000 H   0  0  0  0  0  0  0  0  0  0  0  0
    6.8671   -2.6180    0.0000 H   0  0  0  0  0  0  0  0  0  0  0  0
    5.4641   -3.4280    0.0000 H   0  0  0  0  0  0  0  0  0  0  0  0
    2.8660   -0.6880    0.0000 H   0  0  0  0  0  0  0  0  0  0  0  0
  1  9  1  0  0  0  0 
  1 14  1  0  0  0  0 
  2 25  1  0  0  0  0 
  3 25  1  0  0  0  0 
  4 11  2  0  0  0  0 
  5 19  1  0  0  0  0 
  5 25  1  0  0  0  0 
  6 11  1  0  0  0  0 
  6 14  2  0  0  0  0 
  7  8  1  0  0  0  0 
  7 14  1  0  0  0  0 
  7 32  1  0  0  0  0 
  8 21  2  0  0  0  0 
  9 10  1  1  0  0  0 
  9 11  1  0  0  0  0 
  9 26  1  0  0  0  0 
 10 12  2  0  0  0  0 
 10 13  1  0  0  0  0 
 12 15  1  0  0  0  0 
 12 27  1  0  0  0  0 
 13 16  2  0  0  0  0 
 13 28  1  0  0  0  0 
 15 17  2  0  0  0  0 
 15 29  1  0  0  0  0 
 16 17  1  0  0  0  0 
 16 30  1  0  0  0  0 
 17 31  1  0  0  0  0 
 18 19  1  0  0  0  0 
 18 20  2  0  0  0  0 
 18 21  1  0  0  0  0 
 19 22  2  0  0  0  0 
 20 23  1  0  0  0  0 
 20 33  1  0  0  0  0 
 21 34  1  0  0  0  0 
 22 24  1  0  0  0  0 
 22 35  1  0  0  0  0 
 23 24  2  0  0  0  0 
 23 36  1  0  0  0  0 
 24 37  1  0  0  0  0 
 25 38  1  0  0  0  0 
M  END
> <cdk:Title>
34637812

> <cdk:Remark>
null

> <PUBCHEM_COMPOUND_CID>
34637812

> <PUBCHEM_COMPOUND_CANONICALIZED>
1

> <PUBCHEM_CACTVS_COMPLEXITY>
524

> <PUBCHEM_CACTVS_HBOND_ACCEPTOR>
6

> <PUBCHEM_CACTVS_HBOND_DONOR>
1

> <PUBCHEM_CACTVS_ROTATABLE_BOND>
6

> <PUBCHEM_CACTVS_SUBSKEYS>
AAADccB7MYBAAAAAAAAAAAAAAAAAAQAAAAAwYAAAAAAAAAABQAAAHwQYAAAADATF2BaxBoJiBAioAjFzNAASGAFgIBAIiAEmCJgMJrKktRuAMCAkyBEIqAeYyKCOAAAAAAAIAAAAAAAAABAAAAAAAAAAAA==

> <PUBCHEM_IUPAC_OPENEYE_NAME>
(5R)-2-[(2Z)-2-[[2-(difluoromethoxy)phenyl]methylene]hydrazino]-5-phenyl-thiazol-4-one

> <PUBCHEM_IUPAC_CAS_NAME>
(5R)-2-[(2Z)-2-[[2-(difluoromethoxy)phenyl]methylidene]hydrazinyl]-5-phenyl-4-thiazolone

> <PUBCHEM_IUPAC_NAME>
(5R)-2-[(2Z)-2-[[2-(difluoromethoxy)phenyl]methylidene]hydrazinyl]-5-phenyl-1,3-thiazol-4-one

> <PUBCHEM_IUPAC_SYSTEMATIC_NAME>
(5R)-2-[(2Z)-2-[[2-[bis(fluoranyl)methoxy]phenyl]methylidene]hydrazinyl]-5-phenyl-1,3-thiazol-4-one

> <PUBCHEM_IUPAC_TRADITIONAL_NAME>
(5R)-2-[(N'Z)-N'-[2-(difluoromethoxy)benzylidene]hydrazino]-5-phenyl-2-thiazolin-4-one

> <PUBCHEM_IUPAC_INCHI>
InChI=1S/C17H13F2N3O2S/c18-16(19)24-13-9-5-4-8-12(13)10-20-22-17-21-15(23)14(25-17)11-6-2-1-3-7-11/h1-10,14,16H,(H,21,22,23)/b20-10-/t14-/m1/s1

> <PUBCHEM_IUPAC_INCHIKEY>
SEPFCYQCUTYXJG-IPZKOZABSA-N

> <PUBCHEM_XLOGP3_AA>
4.4

> <PUBCHEM_EXACT_MASS>
361.069654

> <PUBCHEM_MOLECULAR_FORMULA>
C17H13F2N3O2S

> <PUBCHEM_MOLECULAR_WEIGHT>
361.365826

> <PUBCHEM_OPENEYE_CAN_SMILES>
C1=CC=C(C=C1)C2C(=O)N=C(S2)NN=CC3=CC=CC=C3OC(F)F

> <PUBCHEM_OPENEYE_ISO_SMILES>
C1=CC=C(C=C1)[C@@H]2C(=O)N=C(S2)N/N=C\C3=CC=CC=C3OC(F)F

> <PUBCHEM_CACTVS_TPSA>
88.4

> <PUBCHEM_MONOISOTOPIC_WEIGHT>
361.069654

> <PUBCHEM_TOTAL_CHARGE>
0

> <PUBCHEM_HEAVY_ATOM_COUNT>
25

> <PUBCHEM_ATOM_DEF_STEREO_COUNT>
1

> <PUBCHEM_ATOM_UDEF_STEREO_COUNT>
0

> <PUBCHEM_BOND_DEF_STEREO_COUNT>
1

> <PUBCHEM_BOND_UDEF_STEREO_COUNT>
0

> <PUBCHEM_ISOTOPIC_ATOM_COUNT>
0

> <PUBCHEM_COMPONENT_COUNT>
1

> <PUBCHEM_CACTVS_TAUTO_COUNT>
5

> <PUBCHEM_COORDINATE_TYPE>
1

> <PUBCHEM_BONDANNOTATIONS>
10  12  8

$$$$
