
  CDK     0202151410

 30 34  0  0  0  0  0  0  0  0999 V2000
    4.8807   -2.4750    0.0000 Br  0  0  0  0  0  0  0  0  0  0  0  0
    8.3637    3.7588    0.0000 S   0  0  0  0  0  0  0  0  0  0  0  0
    7.2876    1.3388    0.0000 N   0  0  0  0  0  0  0  0  0  0  0  0
    8.8228   -0.0307    0.0000 N   0  0  0  0  0  0  0  0  0  0  0  0
    5.8176   -0.0307    0.0000 N   0  0  0  0  0  0  0  0  0  0  0  0
    7.3210   -1.4002    0.0000 N   0  0  0  0  0  0  0  0  0  0  0  0
    6.4856    1.9733    0.0000 C   0  0  0  0  0  0  0  0  0  0  0  0
    8.1230    2.0068    0.0000 C   0  0  0  0  0  0  0  0  0  0  0  0
    5.5179    1.7055    0.0000 C   0  0  0  0  0  0  0  0  0  0  0  0
    7.7881    2.9410    0.0000 C   0  0  0  0  0  0  0  0  0  0  0  0
    6.7870    2.9410    0.0000 C   0  0  0  0  0  0  0  0  0  0  0  0
    9.4238   -0.7657    0.0000 C   0  0  0  0  0  0  0  0  0  0  0  0
    9.3904    0.7713    0.0000 C   0  0  0  0  0  0  0  0  0  0  0  0
    9.0907    1.7055    0.0000 C   0  0  0  0  0  0  0  0  0  0  0  0
    9.1242   -1.7333    0.0000 C   0  0  0  0  0  0  0  0  0  0  0  0
    5.2500    0.7378    0.0000 C   0  0  0  0  0  0  0  0  0  0  0  0
    4.8167    2.4184    0.0000 C   0  0  0  0  0  0  0  0  0  0  0  0
   10.3597   -0.4978    0.0000 C   0  0  0  0  0  0  0  0  0  0  0  0
   10.3597    0.5034    0.0000 C   0  0  0  0  0  0  0  0  0  0  0  0
    8.1230   -2.0012    0.0000 C   0  0  0  0  0  0  0  0  0  0  0  0
    9.8310   -2.4407    0.0000 C   0  0  0  0  0  0  0  0  0  0  0  0
    4.2824    0.4699    0.0000 C   0  0  0  0  0  0  0  0  0  0  0  0
    5.2500   -0.7991    0.0000 C   0  0  0  0  0  0  0  0  0  0  0  0
    5.0834    3.3821    0.0000 C   0  0  0  0  0  0  0  0  0  0  0  0
    3.8486    2.1675    0.0000 C   0  0  0  0  0  0  0  0  0  0  0  0
    6.5191   -2.0347    0.0000 C   0  0  0  0  0  0  0  0  0  0  0  0
    7.8216   -2.9689    0.0000 C   0  0  0  0  0  0  0  0  0  0  0  0
    4.2824   -0.5313    0.0000 C   0  0  0  0  0  0  0  0  0  0  0  0
    5.5514   -1.7333    0.0000 C   0  0  0  0  0  0  0  0  0  0  0  0
    6.8204   -2.9689    0.0000 C   0  0  0  0  0  0  0  0  0  0  0  0
  1 29  1  0  0  0  0 
  2 10  1  0  0  0  0 
  3  7  1  0  0  0  0 
  3  8  1  0  0  0  0 
  4 12  1  0  0  0  0 
  4 13  1  0  0  0  0 
  5 16  1  0  0  0  0 
  5 23  1  0  0  0  0 
  6 20  1  0  0  0  0 
  6 26  1  0  0  0  0 
  7  9  1  0  0  0  0 
  7 11  1  0  0  0  0 
  8 10  1  0  0  0  0 
  8 14  1  0  0  0  0 
  9 16  1  0  0  0  0 
  9 17  1  0  0  0  0 
 10 11  1  0  0  0  0 
 12 15  1  0  0  0  0 
 12 18  1  0  0  0  0 
 13 14  1  0  0  0  0 
 13 19  1  0  0  0  0 
 15 20  1  0  0  0  0 
 15 21  1  0  0  0  0 
 16 22  1  0  0  0  0 
 17 24  1  0  0  0  0 
 17 25  1  0  0  0  0 
 18 19  1  0  0  0  0 
 20 27  1  0  0  0  0 
 22 28  1  0  0  0  0 
 23 28  1  0  0  0  0 
 23 29  1  0  0  0  0 
 26 29  1  0  0  0  0 
 26 30  1  0  0  0  0 
 27 30  1  0  0  0  0 
M  END
> <PUBCHEM_COMPOUND_CID>
21609844

$$$$
