1185411
  CDK     1013141235

 41 43  0  0  0  0  0  0  0  0999 V2000
    8.0647    2.6530    0.0000 S   0  0  0  0  0  0  0  0  0  0  0  0
    6.2851   -1.4403    0.0000 S   0  0  0  0  0  0  0  0  0  0  0  0
    9.0647    2.6530    0.0000 O   0  0  0  0  0  0  0  0  0  0  0  0
    7.0647    2.6530    0.0000 O   0  0  0  0  0  0  0  0  0  0  0  0
    2.9945    1.5753    0.0000 O   0  0  0  0  0  0  0  0  0  0  0  0
    5.7092   -3.9630    0.0000 O   0  0  0  0  0  0  0  0  0  0  0  0
    8.0647   -1.3470    0.0000 N   0  0  0  0  0  0  0  0  0  0  0  0
    7.0941   -2.8415    0.0000 N   0  0  0  0  0  0  0  0  0  0  0  0
    8.0647    3.6530    0.0000 N   0  0  0  0  0  0  0  0  0  0  0  0
    8.0647    1.6530    0.0000 C   0  0  0  0  0  0  0  0  0  0  0  0
    8.0647   -0.3470    0.0000 C   0  0  0  0  0  0  0  0  0  0  0  0
    7.1987    1.1530    0.0000 C   0  0  0  0  0  0  0  0  0  0  0  0
    8.9307    1.1530    0.0000 C   0  0  0  0  0  0  0  0  0  0  0  0
    7.1987    0.1530    0.0000 C   0  0  0  0  0  0  0  0  0  0  0  0
    8.9307    0.1530    0.0000 C   0  0  0  0  0  0  0  0  0  0  0  0
    7.1987   -1.8470    0.0000 C   0  0  0  0  0  0  0  0  0  0  0  0
    4.2147   -1.1653    0.0000 C   0  0  0  0  0  0  0  0  0  0  0  0
    5.6160   -2.1834    0.0000 C   0  0  0  0  0  0  0  0  0  0  0  0
    4.6215   -2.0789    0.0000 C   0  0  0  0  0  0  0  0  0  0  0  0
    4.8025   -0.3563    0.0000 C   0  0  0  0  0  0  0  0  0  0  0  0
    3.2202   -1.0608    0.0000 C   0  0  0  0  0  0  0  0  0  0  0  0
    6.1160   -3.0494    0.0000 C   0  0  0  0  0  0  0  0  0  0  0  0
    3.4013    0.6617    0.0000 C   0  0  0  0  0  0  0  0  0  0  0  0
    4.3958    0.5572    0.0000 C   0  0  0  0  0  0  0  0  0  0  0  0
    2.8135   -0.1473    0.0000 C   0  0  0  0  0  0  0  0  0  0  0  0
    2.0000    1.6798    0.0000 C   0  0  0  0  0  0  0  0  0  0  0  0
    6.6617    1.4630    0.0000 H   0  0  0  0  0  0  0  0  0  0  0  0
    9.4677    1.4630    0.0000 H   0  0  0  0  0  0  0  0  0  0  0  0
    6.6617   -0.1570    0.0000 H   0  0  0  0  0  0  0  0  0  0  0  0
    9.4677   -0.1570    0.0000 H   0  0  0  0  0  0  0  0  0  0  0  0
    8.6016   -1.6570    0.0000 H   0  0  0  0  0  0  0  0  0  0  0  0
    4.2570   -2.5805    0.0000 H   0  0  0  0  0  0  0  0  0  0  0  0
    5.4191   -0.4211    0.0000 H   0  0  0  0  0  0  0  0  0  0  0  0
    2.8558   -1.5624    0.0000 H   0  0  0  0  0  0  0  0  0  0  0  0
    4.7602    1.0588    0.0000 H   0  0  0  0  0  0  0  0  0  0  0  0
    2.1969   -0.0825    0.0000 H   0  0  0  0  0  0  0  0  0  0  0  0
    8.6016    3.9630    0.0000 H   0  0  0  0  0  0  0  0  0  0  0  0
    7.5278    3.9630    0.0000 H   0  0  0  0  0  0  0  0  0  0  0  0
    2.0648    2.2964    0.0000 H   0  0  0  0  0  0  0  0  0  0  0  0
    1.3834    1.7446    0.0000 H   0  0  0  0  0  0  0  0  0  0  0  0
    1.9352    1.0632    0.0000 H   0  0  0  0  0  0  0  0  0  0  0  0
  1  3  2  0  0  0  0 
  1  4  2  0  0  0  0 
  1  9  1  0  0  0  0 
  1 10  1  0  0  0  0 
  2 16  1  0  0  0  0 
  2 18  1  0  0  0  0 
  5 23  1  0  0  0  0 
  5 26  1  0  0  0  0 
  6 22  2  0  0  0  0 
  7 11  1  0  0  0  0 
  7 16  1  0  0  0  0 
  7 31  1  0  0  0  0 
  8 16  2  0  0  0  0 
  8 22  1  0  0  0  0 
  9 37  1  0  0  0  0 
  9 38  1  0  0  0  0 
 10 12  2  0  0  0  0 
 10 13  1  0  0  0  0 
 11 14  2  0  0  0  0 
 11 15  1  0  0  0  0 
 12 14  1  0  0  0  0 
 12 27  1  0  0  0  0 
 13 15  2  0  0  0  0 
 13 28  1  0  0  0  0 
 14 29  1  0  0  0  0 
 15 30  1  0  0  0  0 
 17 19  1  0  0  0  0 
 17 20  2  0  0  0  0 
 17 21  1  0  0  0  0 
 18 19  2  0  0  0  0 
 18 22  1  0  0  0  0 
 19 32  1  0  0  0  0 
 20 24  1  0  0  0  0 
 20 33  1  0  0  0  0 
 21 25  2  0  0  0  0 
 21 34  1  0  0  0  0 
 23 24  2  0  0  0  0 
 23 25  1  0  0  0  0 
 24 35  1  0  0  0  0 
 25 36  1  0  0  0  0 
 26 39  1  0  0  0  0 
 26 40  1  0  0  0  0 
 26 41  1  0  0  0  0 
M  END
> <cdk:Title>
1185411

> <cdk:Remark>
null

> <PUBCHEM_COMPOUND_CID>
1185411

> <PUBCHEM_COMPOUND_CANONICALIZED>
1

> <PUBCHEM_CACTVS_COMPLEXITY>
683

> <PUBCHEM_CACTVS_HBOND_ACCEPTOR>
6

> <PUBCHEM_CACTVS_HBOND_DONOR>
2

> <PUBCHEM_CACTVS_ROTATABLE_BOND>
5

> <PUBCHEM_CACTVS_SUBSKEYS>
AAADccB7OABgAAAAAAAAAAAAAAAAAQAAAAAwYAAAAAAAAAABQAAAHgQQQAAADAyB2AIzx4LABAqoAiVSdHDCGBFhIhAJiBgGbMgMJiLEuZuEMChk0BFI6YeQwAAOIAQAAAAAAABACAAAAAAAAAAAAAAAAA==

> <PUBCHEM_IUPAC_OPENEYE_NAME>
4-[[(5Z)-5-[(4-methoxyphenyl)methylene]-4-oxo-thiazol-2-yl]amino]benzenesulfonamide

> <PUBCHEM_IUPAC_CAS_NAME>
4-[[(5Z)-5-[(4-methoxyphenyl)methylidene]-4-oxo-2-thiazolyl]amino]benzenesulfonamide

> <PUBCHEM_IUPAC_NAME>
4-[[(5Z)-5-[(4-methoxyphenyl)methylidene]-4-oxo-1,3-thiazol-2-yl]amino]benzenesulfonamide

> <PUBCHEM_IUPAC_SYSTEMATIC_NAME>
4-[[(5Z)-5-[(4-methoxyphenyl)methylidene]-4-oxidanylidene-1,3-thiazol-2-yl]amino]benzenesulfonamide

> <PUBCHEM_IUPAC_TRADITIONAL_NAME>
4-[[(5Z)-4-keto-5-p-anisylidene-2-thiazolin-2-yl]amino]benzenesulfonamide

> <PUBCHEM_IUPAC_INCHI>
InChI=1S/C17H15N3O4S2/c1-24-13-6-2-11(3-7-13)10-15-16(21)20-17(25-15)19-12-4-8-14(9-5-12)26(18,22)23/h2-10H,1H3,(H2,18,22,23)(H,19,20,21)/b15-10-

> <PUBCHEM_IUPAC_INCHIKEY>
MADYFWLZXYMNQZ-GDNBJRDFSA-N

> <PUBCHEM_XLOGP3_AA>
2.4

> <PUBCHEM_EXACT_MASS>
389.050398

> <PUBCHEM_MOLECULAR_FORMULA>
C17H15N3O4S2

> <PUBCHEM_MOLECULAR_WEIGHT>
389.4487

> <PUBCHEM_OPENEYE_CAN_SMILES>
COC1=CC=C(C=C1)C=C2C(=O)N=C(S2)NC3=CC=C(C=C3)S(=O)(=O)N

> <PUBCHEM_OPENEYE_ISO_SMILES>
COC1=CC=C(C=C1)/C=C\2/C(=O)N=C(S2)NC3=CC=C(C=C3)S(=O)(=O)N

> <PUBCHEM_CACTVS_TPSA>
145

> <PUBCHEM_MONOISOTOPIC_WEIGHT>
389.050398

> <PUBCHEM_TOTAL_CHARGE>
0

> <PUBCHEM_HEAVY_ATOM_COUNT>
26

> <PUBCHEM_ATOM_DEF_STEREO_COUNT>
0

> <PUBCHEM_ATOM_UDEF_STEREO_COUNT>
0

> <PUBCHEM_BOND_DEF_STEREO_COUNT>
1

> <PUBCHEM_BOND_UDEF_STEREO_COUNT>
0

> <PUBCHEM_ISOTOPIC_ATOM_COUNT>
0

> <PUBCHEM_COMPONENT_COUNT>
1

> <PUBCHEM_CACTVS_TAUTO_COUNT>
3

> <PUBCHEM_COORDINATE_TYPE>
1

> <PUBCHEM_BONDANNOTATIONS>
10  12  8

$$$$
