12891779
  CDK     1013141235

 34 36  0  0  0  0  0  0  0  0999 V2000
    6.7157   -1.6758    0.0000 Cl  0  0  0  0  0  0  0  0  0  0  0  0
    7.9731    2.1943    0.0000 Cl  0  0  0  0  0  0  0  0  0  0  0  0
    2.9789   -1.2654    0.0000 N   0  0  0  0  0  0  0  0  0  0  0  0
    5.8507    1.5952    0.0000 N   0  0  0  0  0  0  0  0  0  0  0  0
    3.6452   -0.5196    0.0000 C   0  0  3  0  0  0  0  0  0  0  0  0
    4.6657   -0.7284    0.0000 C   0  0  0  0  0  0  0  0  0  0  0  0
    3.3233    0.4710    0.0000 C   0  0  0  0  0  0  0  0  0  0  0  0
    5.3507    0.0564    0.0000 C   0  0  0  0  0  0  0  0  0  0  0  0
    4.0263    1.2397    0.0000 C   0  0  0  0  0  0  0  0  0  0  0  0
    5.0417    1.0074    0.0000 C   0  0  0  0  0  0  0  0  0  0  0  0
    6.3507    0.0564    0.0000 C   0  0  0  0  0  0  0  0  0  0  0  0
    6.6597    1.0074    0.0000 C   0  0  0  0  0  0  0  0  0  0  0  0
    2.0000   -1.0612    0.0000 C   0  0  0  0  0  0  0  0  0  0  0  0
    3.2916   -2.2152    0.0000 C   0  0  0  0  0  0  0  0  0  0  0  0
    7.0356   -0.7284    0.0000 C   0  0  0  0  0  0  0  0  0  0  0  0
    7.6751    1.2397    0.0000 C   0  0  0  0  0  0  0  0  0  0  0  0
    8.0562   -0.5196    0.0000 C   0  0  0  0  0  0  0  0  0  0  0  0
    8.3780    0.4710    0.0000 C   0  0  0  0  0  0  0  0  0  0  0  0
    3.0385   -0.3919    0.0000 H   0  0  0  0  0  0  0  0  0  0  0  0
    4.4394   -1.3056    0.0000 H   0  0  0  0  0  0  0  0  0  0  0  0
    5.1957   -1.0501    0.0000 H   0  0  0  0  0  0  0  0  0  0  0  0
    2.9441    0.9615    0.0000 H   0  0  0  0  0  0  0  0  0  0  0  0
    2.7752    0.1813    0.0000 H   0  0  0  0  0  0  0  0  0  0  0  0
    4.2659    1.8115    0.0000 H   0  0  0  0  0  0  0  0  0  0  0  0
    3.5039    1.5736    0.0000 H   0  0  0  0  0  0  0  0  0  0  0  0
    5.8507    2.2152    0.0000 H   0  0  0  0  0  0  0  0  0  0  0  0
    2.7027   -2.4091    0.0000 H   0  0  0  0  0  0  0  0  0  0  0  0
    3.4855   -2.8041    0.0000 H   0  0  0  0  0  0  0  0  0  0  0  0
    2.1266   -0.4543    0.0000 H   0  0  0  0  0  0  0  0  0  0  0  0
    1.3931   -0.9347    0.0000 H   0  0  0  0  0  0  0  0  0  0  0  0
    1.8734   -1.6682    0.0000 H   0  0  0  0  0  0  0  0  0  0  0  0
    3.8805   -2.0214    0.0000 H   0  0  0  0  0  0  0  0  0  0  0  0
    8.4692   -0.9820    0.0000 H   0  0  0  0  0  0  0  0  0  0  0  0
    8.9840    0.6022    0.0000 H   0  0  0  0  0  0  0  0  0  0  0  0
  1 15  1  0  0  0  0 
  2 16  1  0  0  0  0 
  3  5  1  0  0  0  0 
  3 13  1  0  0  0  0 
  3 14  1  0  0  0  0 
  4 10  1  0  0  0  0 
  4 12  1  0  0  0  0 
  4 26  1  0  0  0  0 
  5  6  1  0  0  0  0 
  5  7  1  0  0  0  0 
  5 19  1  0  0  0  0 
  6  8  1  0  0  0  0 
  6 20  1  0  0  0  0 
  6 21  1  0  0  0  0 
  7  9  1  0  0  0  0 
  7 22  1  0  0  0  0 
  7 23  1  0  0  0  0 
  8 10  2  0  0  0  0 
  8 11  1  0  0  0  0 
  9 10  1  0  0  0  0 
  9 24  1  0  0  0  0 
  9 25  1  0  0  0  0 
 11 12  1  0  0  0  0 
 11 15  2  0  0  0  0 
 12 16  2  0  0  0  0 
 13 29  1  0  0  0  0 
 13 30  1  0  0  0  0 
 13 31  1  0  0  0  0 
 14 27  1  0  0  0  0 
 14 28  1  0  0  0  0 
 14 32  1  0  0  0  0 
 15 17  1  0  0  0  0 
 16 18  1  0  0  0  0 
 17 18  2  0  0  0  0 
 17 33  1  0  0  0  0 
 18 34  1  0  0  0  0 
M  END
> <cdk:Title>
12891779

> <cdk:Remark>
null

> <PUBCHEM_COMPOUND_CID>
12891779

> <PUBCHEM_COMPOUND_CANONICALIZED>
1

> <PUBCHEM_CACTVS_COMPLEXITY>
310

> <PUBCHEM_CACTVS_HBOND_ACCEPTOR>
1

> <PUBCHEM_CACTVS_HBOND_DONOR>
1

> <PUBCHEM_CACTVS_ROTATABLE_BOND>
1

> <PUBCHEM_CACTVS_SUBSKEYS>
AAADceBzAAAGAAAAAAAAAAAAAAAAAWAAAAAwYAAAAAAAAFgB8AAAHAIQAAAADCrBHiQywPPJkACgAyRiRACCgCAhBSAImSA4RpgIIOLBkpHEIAhgkADIyAcQgMAOgAAQIAIDABAAASDABAYAIAAAAAAAAA==

> <PUBCHEM_IUPAC_OPENEYE_NAME>
5,8-dichloro-N,N-dimethyl-2,3,4,9-tetrahydro-1H-carbazol-3-amine

> <PUBCHEM_IUPAC_CAS_NAME>
5,8-dichloro-N,N-dimethyl-2,3,4,9-tetrahydro-1H-carbazol-3-amine

> <PUBCHEM_IUPAC_NAME>
5,8-dichloro-N,N-dimethyl-2,3,4,9-tetrahydro-1H-carbazol-3-amine

> <PUBCHEM_IUPAC_SYSTEMATIC_NAME>
5,8-bis(chloranyl)-N,N-dimethyl-2,3,4,9-tetrahydro-1H-carbazol-3-amine

> <PUBCHEM_IUPAC_TRADITIONAL_NAME>
(5,8-dichloro-2,3,4,9-tetrahydro-1H-carbazol-3-yl)-dimethyl-amine

> <PUBCHEM_IUPAC_INCHI>
InChI=1S/C14H16Cl2N2/c1-18(2)8-3-6-12-9(7-8)13-10(15)4-5-11(16)14(13)17-12/h4-5,8,17H,3,6-7H2,1-2H3

> <PUBCHEM_IUPAC_INCHIKEY>
CHEFBXDISMPWJV-UHFFFAOYSA-N

> <PUBCHEM_XLOGP3_AA>
4.1

> <PUBCHEM_EXACT_MASS>
282.069054

> <PUBCHEM_MOLECULAR_FORMULA>
C14H16Cl2N2

> <PUBCHEM_MOLECULAR_WEIGHT>
283.19624

> <PUBCHEM_OPENEYE_CAN_SMILES>
CN(C)C1CCC2=C(C1)C3=C(C=CC(=C3N2)Cl)Cl

> <PUBCHEM_OPENEYE_ISO_SMILES>
CN(C)C1CCC2=C(C1)C3=C(C=CC(=C3N2)Cl)Cl

> <PUBCHEM_CACTVS_TPSA>
19

> <PUBCHEM_MONOISOTOPIC_WEIGHT>
282.069054

> <PUBCHEM_TOTAL_CHARGE>
0

> <PUBCHEM_HEAVY_ATOM_COUNT>
18

> <PUBCHEM_ATOM_DEF_STEREO_COUNT>
0

> <PUBCHEM_ATOM_UDEF_STEREO_COUNT>
1

> <PUBCHEM_BOND_DEF_STEREO_COUNT>
0

> <PUBCHEM_BOND_UDEF_STEREO_COUNT>
0

> <PUBCHEM_ISOTOPIC_ATOM_COUNT>
0

> <PUBCHEM_COMPONENT_COUNT>
1

> <PUBCHEM_CACTVS_TAUTO_COUNT>
1

> <PUBCHEM_COORDINATE_TYPE>
1

> <PUBCHEM_BONDANNOTATIONS>
11  12  8

$$$$
