52790494
  CDK     1013141235

 65 66  0  0  0  0  0  0  0  0999 V2000
    3.0000    1.8660    0.0000 S   0  0  0  0  0  0  0  0  0  0  0  0
    5.5981    2.3660    0.0000 S   0  0  0  0  0  0  0  0  0  0  0  0
    3.0000   -1.1340    0.0000 O   0  0  0  0  0  0  0  0  0  0  0  0
    2.0000    1.8660    0.0000 O   0  0  0  0  0  0  0  0  0  0  0  0
    4.0000    1.8660    0.0000 O   0  0  0  0  0  0  0  0  0  0  0  0
    6.4641   -4.1340    0.0000 N   0  0  3  0  0  0  0  0  0  0  0  0
    4.7320   -1.1340    0.0000 N   0  0  0  0  0  0  0  0  0  0  0  0
    3.0000    0.8660    0.0000 N   0  0  0  0  0  0  0  0  0  0  0  0
    5.5981   -2.6340    0.0000 C   0  0  2  0  0  0  0  0  0  0  0  0
    5.5981   -3.6340    0.0000 C   0  0  0  0  0  0  0  0  0  0  0  0
    7.3301   -3.6340    0.0000 C   0  0  0  0  0  0  0  0  0  0  0  0
    6.4641   -2.1340    0.0000 C   0  0  0  0  0  0  0  0  0  0  0  0
    7.3301   -2.6340    0.0000 C   0  0  0  0  0  0  0  0  0  0  0  0
    5.9641   -5.0000    0.0000 C   0  0  0  0  0  0  0  0  0  0  0  0
    4.7320   -2.1340    0.0000 C   0  0  0  0  0  0  0  0  0  0  0  0
    6.4641   -5.8660    0.0000 C   0  0  0  0  0  0  0  0  0  0  0  0
    4.9641   -5.0000    0.0000 C   0  0  0  0  0  0  0  0  0  0  0  0
    3.8660   -0.6340    0.0000 C   0  0  0  0  0  0  0  0  0  0  0  0
    3.8660    0.3660    0.0000 C   0  0  2  0  0  0  0  0  0  0  0  0
    4.7320    0.8660    0.0000 C   0  0  0  0  0  0  0  0  0  0  0  0
    4.7320    1.8660    0.0000 C   0  0  0  0  0  0  0  0  0  0  0  0
    3.0000    2.8660    0.0000 C   0  0  0  0  0  0  0  0  0  0  0  0
    3.8660    3.3660    0.0000 C   0  0  0  0  0  0  0  0  0  0  0  0
    2.1340    3.3660    0.0000 C   0  0  0  0  0  0  0  0  0  0  0  0
    6.4641    1.8660    0.0000 C   0  0  0  0  0  0  0  0  0  0  0  0
    3.8660    4.3660    0.0000 C   0  0  0  0  0  0  0  0  0  0  0  0
    2.1340    4.3660    0.0000 C   0  0  0  0  0  0  0  0  0  0  0  0
    3.0000    4.8660    0.0000 C   0  0  0  0  0  0  0  0  0  0  0  0
    3.0000    5.8660    0.0000 C   0  0  0  0  0  0  0  0  0  0  0  0
    6.7741   -4.6709    0.0000 H   0  0  0  0  0  0  0  0  0  0  0  0
    5.5981   -2.0140    0.0000 H   0  0  0  0  0  0  0  0  0  0  0  0
    4.9875   -3.5263    0.0000 H   0  0  0  0  0  0  0  0  0  0  0  0
    5.3860   -4.2166    0.0000 H   0  0  0  0  0  0  0  0  0  0  0  0
    7.5422   -4.2166    0.0000 H   0  0  0  0  0  0  0  0  0  0  0  0
    7.9407   -3.5263    0.0000 H   0  0  0  0  0  0  0  0  0  0  0  0
    6.8626   -1.6590    0.0000 H   0  0  0  0  0  0  0  0  0  0  0  0
    6.0656   -1.6590    0.0000 H   0  0  0  0  0  0  0  0  0  0  0  0
    7.9407   -2.7416    0.0000 H   0  0  0  0  0  0  0  0  0  0  0  0
    7.5422   -2.0514    0.0000 H   0  0  0  0  0  0  0  0  0  0  0  0
    6.5841   -5.0000    0.0000 H   0  0  0  0  0  0  0  0  0  0  0  0
    4.1215   -2.0263    0.0000 H   0  0  0  0  0  0  0  0  0  0  0  0
    4.5200   -2.7166    0.0000 H   0  0  0  0  0  0  0  0  0  0  0  0
    5.9272   -6.1760    0.0000 H   0  0  0  0  0  0  0  0  0  0  0  0
    6.7741   -6.4030    0.0000 H   0  0  0  0  0  0  0  0  0  0  0  0
    7.0010   -5.5560    0.0000 H   0  0  0  0  0  0  0  0  0  0  0  0
    4.9641   -4.3800    0.0000 H   0  0  0  0  0  0  0  0  0  0  0  0
    4.3441   -5.0000    0.0000 H   0  0  0  0  0  0  0  0  0  0  0  0
    4.9641   -5.6200    0.0000 H   0  0  0  0  0  0  0  0  0  0  0  0
    5.2690   -0.8240    0.0000 H   0  0  0  0  0  0  0  0  0  0  0  0
    3.8660    0.9860    0.0000 H   0  0  0  0  0  0  0  0  0  0  0  0
    4.9441    0.2834    0.0000 H   0  0  0  0  0  0  0  0  0  0  0  0
    5.3426    0.9737    0.0000 H   0  0  0  0  0  0  0  0  0  0  0  0
    2.4631    0.5560    0.0000 H   0  0  0  0  0  0  0  0  0  0  0  0
    4.5200    2.4486    0.0000 H   0  0  0  0  0  0  0  0  0  0  0  0
    4.1215    1.7584    0.0000 H   0  0  0  0  0  0  0  0  0  0  0  0
    4.4030    3.0560    0.0000 H   0  0  0  0  0  0  0  0  0  0  0  0
    1.5970    3.0560    0.0000 H   0  0  0  0  0  0  0  0  0  0  0  0
    4.4030    4.6760    0.0000 H   0  0  0  0  0  0  0  0  0  0  0  0
    1.5970    4.6760    0.0000 H   0  0  0  0  0  0  0  0  0  0  0  0
    6.1541    1.3291    0.0000 H   0  0  0  0  0  0  0  0  0  0  0  0
    7.0010    1.5560    0.0000 H   0  0  0  0  0  0  0  0  0  0  0  0
    6.7741    2.4030    0.0000 H   0  0  0  0  0  0  0  0  0  0  0  0
    3.6200    5.8660    0.0000 H   0  0  0  0  0  0  0  0  0  0  0  0
    3.0000    6.4860    0.0000 H   0  0  0  0  0  0  0  0  0  0  0  0
    2.3800    5.8660    0.0000 H   0  0  0  0  0  0  0  0  0  0  0  0
  1  4  2  0  0  0  0 
  1  5  2  0  0  0  0 
  1  8  1  0  0  0  0 
  1 22  1  0  0  0  0 
  2 21  1  0  0  0  0 
  2 25  1  0  0  0  0 
  3 18  2  0  0  0  0 
  6 10  1  0  0  0  0 
  6 11  1  0  0  0  0 
  6 14  1  0  0  0  0 
  6 30  1  0  0  0  0 
  7 15  1  0  0  0  0 
  7 18  1  0  0  0  0 
  7 49  1  0  0  0  0 
 19  8  1  1  0  0  0 
  8 53  1  0  0  0  0 
  9 10  1  0  0  0  0 
  9 12  1  0  0  0  0 
  9 15  1  1  0  0  0 
  9 31  1  0  0  0  0 
 10 32  1  0  0  0  0 
 10 33  1  0  0  0  0 
 11 13  1  0  0  0  0 
 11 34  1  0  0  0  0 
 11 35  1  0  0  0  0 
 12 13  1  0  0  0  0 
 12 36  1  0  0  0  0 
 12 37  1  0  0  0  0 
 13 38  1  0  0  0  0 
 13 39  1  0  0  0  0 
 14 16  1  0  0  0  0 
 14 17  1  0  0  0  0 
 14 40  1  0  0  0  0 
 15 41  1  0  0  0  0 
 15 42  1  0  0  0  0 
 16 43  1  0  0  0  0 
 16 44  1  0  0  0  0 
 16 45  1  0  0  0  0 
 17 46  1  0  0  0  0 
 17 47  1  0  0  0  0 
 17 48  1  0  0  0  0 
 18 19  1  0  0  0  0 
 19 20  1  0  0  0  0 
 19 50  1  0  0  0  0 
 20 21  1  0  0  0  0 
 20 51  1  0  0  0  0 
 20 52  1  0  0  0  0 
 21 54  1  0  0  0  0 
 21 55  1  0  0  0  0 
 22 23  2  0  0  0  0 
 22 24  1  0  0  0  0 
 23 26  1  0  0  0  0 
 23 56  1  0  0  0  0 
 24 27  2  0  0  0  0 
 24 57  1  0  0  0  0 
 25 60  1  0  0  0  0 
 25 61  1  0  0  0  0 
 25 62  1  0  0  0  0 
 26 28  2  0  0  0  0 
 26 58  1  0  0  0  0 
 27 28  1  0  0  0  0 
 27 59  1  0  0  0  0 
 28 29  1  0  0  0  0 
 29 63  1  0  0  0  0 
 29 64  1  0  0  0  0 
 29 65  1  0  0  0  0 
M  CHG  1   6   1
M  END
> <cdk:Title>
52790494

> <cdk:Remark>
null

> <PUBCHEM_COMPOUND_CID>
52790494

> <PUBCHEM_COMPOUND_CANONICALIZED>
1

> <PUBCHEM_CACTVS_COMPLEXITY>
599

> <PUBCHEM_CACTVS_HBOND_ACCEPTOR>
5

> <PUBCHEM_CACTVS_HBOND_DONOR>
3

> <PUBCHEM_CACTVS_ROTATABLE_BOND>
10

> <PUBCHEM_CACTVS_SUBSKEYS>
AAADcfB7MABgAAAAAAAAAAAAAAAAAAAAAAA8QAAAAAAAAAABAAAAHgQQQAAADSjF2ASyAYPAAAqIAiFSEHBCABAgABAIiJmIAIgIYDKg0RCUIAAglgCIiAcQgAAOEAAAAAAAAAAgAAAAAAAAAAAAAAAAAA==

> <PUBCHEM_IUPAC_OPENEYE_NAME>
(2S)-N-[[(3R)-1-isopropylpiperidin-1-ium-3-yl]methyl]-4-methylsulfanyl-2-(p-tolylsulfonylamino)butanamide

> <PUBCHEM_IUPAC_CAS_NAME>
(2S)-2-[(4-methylphenyl)sulfonylamino]-4-(methylthio)-N-[[(3R)-1-propan-2-yl-3-piperidin-1-iumyl]methyl]butanamide

> <PUBCHEM_IUPAC_NAME>
(2S)-2-[(4-methylphenyl)sulfonylamino]-4-methylsulfanyl-N-[[(3R)-1-propan-2-ylpiperidin-1-ium-3-yl]methyl]butanamide

> <PUBCHEM_IUPAC_SYSTEMATIC_NAME>
(2S)-2-[(4-methylphenyl)sulfonylamino]-4-methylsulfanyl-N-[[(3R)-1-propan-2-ylpiperidin-1-ium-3-yl]methyl]butanamide

> <PUBCHEM_IUPAC_TRADITIONAL_NAME>
(2S)-N-[[(3R)-1-isopropylpiperidin-1-ium-3-yl]methyl]-4-(methylthio)-2-(tosylamino)butyramide

> <PUBCHEM_IUPAC_INCHI>
InChI=1S/C21H35N3O3S2/c1-16(2)24-12-5-6-18(15-24)14-22-21(25)20(11-13-28-4)23-29(26,27)19-9-7-17(3)8-10-19/h7-10,16,18,20,23H,5-6,11-15H2,1-4H3,(H,22,25)/p+1/t18-,20+/m1/s1

> <PUBCHEM_IUPAC_INCHIKEY>
YOJRJKUQCBXEEH-QUCCMNQESA-O

> <PUBCHEM_XLOGP3_AA>
3.2

> <PUBCHEM_EXACT_MASS>
442.219809

> <PUBCHEM_MOLECULAR_FORMULA>
C21H36N3O3S2+

> <PUBCHEM_MOLECULAR_WEIGHT>
442.65884

> <PUBCHEM_OPENEYE_CAN_SMILES>
CC1=CC=C(C=C1)S(=O)(=O)NC(CCSC)C(=O)NCC2CCC[NH+](C2)C(C)C

> <PUBCHEM_OPENEYE_ISO_SMILES>
CC1=CC=C(C=C1)S(=O)(=O)N[C@@H](CCSC)C(=O)NC[C@H]2CCC[NH+](C2)C(C)C

> <PUBCHEM_CACTVS_TPSA>
113

> <PUBCHEM_MONOISOTOPIC_WEIGHT>
442.219809

> <PUBCHEM_TOTAL_CHARGE>
1

> <PUBCHEM_HEAVY_ATOM_COUNT>
29

> <PUBCHEM_ATOM_DEF_STEREO_COUNT>
2

> <PUBCHEM_ATOM_UDEF_STEREO_COUNT>
0

> <PUBCHEM_BOND_DEF_STEREO_COUNT>
0

> <PUBCHEM_BOND_UDEF_STEREO_COUNT>
0

> <PUBCHEM_ISOTOPIC_ATOM_COUNT>
0

> <PUBCHEM_COMPONENT_COUNT>
1

> <PUBCHEM_CACTVS_TAUTO_COUNT>
2

> <PUBCHEM_COORDINATE_TYPE>
1

> <PUBCHEM_BONDANNOTATIONS>
22  23  8

$$$$
