5370767
  CDK     1013141235

 37 39  0  0  0  0  0  0  0  0999 V2000
    5.3147    0.4081    0.0000 O   0  0  0  0  0  0  0  0  0  0  0  0
    2.8660   -4.4283    0.0000 O   0  0  0  0  0  0  0  0  0  0  0  0
    4.8535   -1.3132    0.0000 O   0  0  0  0  0  0  0  0  0  0  0  0
    3.8366    1.0662    0.0000 N   0  0  0  0  0  0  0  0  0  0  0  0
    5.2215    2.1877    0.0000 C   0  0  0  0  0  0  0  0  0  0  0  0
    4.8147    1.2741    0.0000 C   0  0  0  0  0  0  0  0  0  0  0  0
    3.7320    0.0717    0.0000 C   0  0  0  0  0  0  0  0  0  0  0  0
    2.8660   -1.4283    0.0000 C   0  0  0  0  0  0  0  0  0  0  0  0
    6.0349    4.0148    0.0000 C   0  0  0  0  0  0  0  0  0  0  0  0
    6.2160    2.2922    0.0000 C   0  0  0  0  0  0  0  0  0  0  0  0
    4.6337    2.9967    0.0000 C   0  0  0  0  0  0  0  0  0  0  0  0
    2.8660   -0.4283    0.0000 C   0  0  0  0  0  0  0  0  0  0  0  0
    6.6227    3.2058    0.0000 C   0  0  0  0  0  0  0  0  0  0  0  0
    5.0404    3.9102    0.0000 C   0  0  0  0  0  0  0  0  0  0  0  0
    4.6456   -0.3350    0.0000 C   0  0  0  0  0  0  0  0  0  0  0  0
    2.0000   -1.9283    0.0000 C   0  0  0  0  0  0  0  0  0  0  0  0
    3.7320   -1.9283    0.0000 C   0  0  0  0  0  0  0  0  0  0  0  0
    2.8660   -3.4283    0.0000 C   0  0  0  0  0  0  0  0  0  0  0  0
    6.4417    4.9283    0.0000 C   0  0  0  0  0  0  0  0  0  0  0  0
    2.0000   -2.9283    0.0000 C   0  0  0  0  0  0  0  0  0  0  0  0
    3.7320   -2.9283    0.0000 C   0  0  0  0  0  0  0  0  0  0  0  0
    2.0000   -4.9283    0.0000 C   0  0  0  0  0  0  0  0  0  0  0  0
    6.5804    1.7906    0.0000 H   0  0  0  0  0  0  0  0  0  0  0  0
    4.0171    2.9319    0.0000 H   0  0  0  0  0  0  0  0  0  0  0  0
    2.3291   -0.1183    0.0000 H   0  0  0  0  0  0  0  0  0  0  0  0
    7.2393    3.2706    0.0000 H   0  0  0  0  0  0  0  0  0  0  0  0
    4.6760    4.4118    0.0000 H   0  0  0  0  0  0  0  0  0  0  0  0
    1.4631   -1.6183    0.0000 H   0  0  0  0  0  0  0  0  0  0  0  0
    4.2690   -1.6183    0.0000 H   0  0  0  0  0  0  0  0  0  0  0  0
    7.0081    4.6761    0.0000 H   0  0  0  0  0  0  0  0  0  0  0  0
    6.6938    5.4947    0.0000 H   0  0  0  0  0  0  0  0  0  0  0  0
    5.8753    5.1805    0.0000 H   0  0  0  0  0  0  0  0  0  0  0  0
    1.4631   -3.2383    0.0000 H   0  0  0  0  0  0  0  0  0  0  0  0
    4.2690   -3.2383    0.0000 H   0  0  0  0  0  0  0  0  0  0  0  0
    1.6900   -4.3914    0.0000 H   0  0  0  0  0  0  0  0  0  0  0  0
    1.4631   -5.2383    0.0000 H   0  0  0  0  0  0  0  0  0  0  0  0
    2.3100   -5.4652    0.0000 H   0  0  0  0  0  0  0  0  0  0  0  0
  1  6  1  0  0  0  0 
  1 15  1  0  0  0  0 
  2 18  1  0  0  0  0 
  2 22  1  0  0  0  0 
  3 15  2  0  0  0  0 
  4  6  2  0  0  0  0 
  4  7  1  0  0  0  0 
  5  6  1  0  0  0  0 
  5 10  2  0  0  0  0 
  5 11  1  0  0  0  0 
  7 12  2  0  0  0  0 
  7 15  1  0  0  0  0 
  8 12  1  0  0  0  0 
  8 16  2  0  0  0  0 
  8 17  1  0  0  0  0 
  9 13  2  0  0  0  0 
  9 14  1  0  0  0  0 
  9 19  1  0  0  0  0 
 10 13  1  0  0  0  0 
 10 23  1  0  0  0  0 
 11 14  2  0  0  0  0 
 11 24  1  0  0  0  0 
 12 25  1  0  0  0  0 
 13 26  1  0  0  0  0 
 14 27  1  0  0  0  0 
 16 20  1  0  0  0  0 
 16 28  1  0  0  0  0 
 17 21  2  0  0  0  0 
 17 29  1  0  0  0  0 
 18 20  2  0  0  0  0 
 18 21  1  0  0  0  0 
 19 30  1  0  0  0  0 
 19 31  1  0  0  0  0 
 19 32  1  0  0  0  0 
 20 33  1  0  0  0  0 
 21 34  1  0  0  0  0 
 22 35  1  0  0  0  0 
 22 36  1  0  0  0  0 
 22 37  1  0  0  0  0 
M  END
> <cdk:Title>
5370767

> <cdk:Remark>
null

> <PUBCHEM_COMPOUND_CID>
5370767

> <PUBCHEM_COMPOUND_CANONICALIZED>
1

> <PUBCHEM_CACTVS_COMPLEXITY>
467

> <PUBCHEM_CACTVS_HBOND_ACCEPTOR>
4

> <PUBCHEM_CACTVS_HBOND_DONOR>
0

> <PUBCHEM_CACTVS_ROTATABLE_BOND>
3

> <PUBCHEM_CACTVS_SUBSKEYS>
AAADccB6MAAAAAAAAAAAAAAAAAAAAQAAAAAwYAAAAAAAAAABQAAAHgAAAAAADAyBmAIyDoIABACoAiTyTAACCAAgIgAIiACmCNgOJqKEMRqDMCAkwBEIqYeAwDAOYAAAAAAAAADAAAAAAAAAAAAAAAAAAA==

> <PUBCHEM_IUPAC_OPENEYE_NAME>
(4E)-4-[(4-methoxyphenyl)methylene]-2-(p-tolyl)oxazol-5-one

> <PUBCHEM_IUPAC_CAS_NAME>
(4E)-4-[(4-methoxyphenyl)methylidene]-2-(4-methylphenyl)-5-oxazolone

> <PUBCHEM_IUPAC_NAME>
(4E)-4-[(4-methoxyphenyl)methylidene]-2-(4-methylphenyl)-1,3-oxazol-5-one

> <PUBCHEM_IUPAC_SYSTEMATIC_NAME>
(4E)-4-[(4-methoxyphenyl)methylidene]-2-(4-methylphenyl)-1,3-oxazol-5-one

> <PUBCHEM_IUPAC_TRADITIONAL_NAME>
(4E)-4-p-anisylidene-2-(p-tolyl)-2-oxazolin-5-one

> <PUBCHEM_IUPAC_INCHI>
InChI=1S/C18H15NO3/c1-12-3-7-14(8-4-12)17-19-16(18(20)22-17)11-13-5-9-15(21-2)10-6-13/h3-11H,1-2H3/b16-11+

> <PUBCHEM_IUPAC_INCHIKEY>
ZWBVMAMDCKGKAA-LFIBNONCSA-N

> <PUBCHEM_XLOGP3_AA>
3.9

> <PUBCHEM_EXACT_MASS>
293.105193

> <PUBCHEM_MOLECULAR_FORMULA>
C18H15NO3

> <PUBCHEM_MOLECULAR_WEIGHT>
293.3166

> <PUBCHEM_OPENEYE_CAN_SMILES>
CC1=CC=C(C=C1)C2=NC(=CC3=CC=C(C=C3)OC)C(=O)O2

> <PUBCHEM_OPENEYE_ISO_SMILES>
CC1=CC=C(C=C1)C2=N/C(=C/C3=CC=C(C=C3)OC)/C(=O)O2

> <PUBCHEM_CACTVS_TPSA>
47.9

> <PUBCHEM_MONOISOTOPIC_WEIGHT>
293.105193

> <PUBCHEM_TOTAL_CHARGE>
0

> <PUBCHEM_HEAVY_ATOM_COUNT>
22

> <PUBCHEM_ATOM_DEF_STEREO_COUNT>
0

> <PUBCHEM_ATOM_UDEF_STEREO_COUNT>
0

> <PUBCHEM_BOND_DEF_STEREO_COUNT>
1

> <PUBCHEM_BOND_UDEF_STEREO_COUNT>
0

> <PUBCHEM_ISOTOPIC_ATOM_COUNT>
0

> <PUBCHEM_COMPONENT_COUNT>
1

> <PUBCHEM_CACTVS_TAUTO_COUNT>
2

> <PUBCHEM_COORDINATE_TYPE>
1

> <PUBCHEM_BONDANNOTATIONS>
10  13  8

$$$$
