65727590
  CDK     1227140956

 51 51  0  0  0  0  0  0  0  0999 V2000
    8.0995   -0.8189    0.0000 S   0  0  0  0  0  0  0  0  0  0  0  0
    3.9021    0.4891    0.0000 N   0  0  0  0  0  0  0  0  0  0  0  0
    8.5995    0.7199    0.0000 N   0  0  0  0  0  0  0  0  0  0  0  0
    7.5995    0.7199    0.0000 N   0  0  0  0  0  0  0  0  0  0  0  0
   11.5538   -0.1801    0.0000 C   0  0  0  0  0  0  0  0  0  0  0  0
   10.6028    0.1290    0.0000 C   0  0  3  0  0  0  0  0  0  0  0  0
    9.8596   -0.5402    0.0000 C   0  0  0  0  0  0  0  0  0  0  0  0
   12.5049   -0.4891    0.0000 C   0  0  0  0  0  0  0  0  0  0  0  0
   11.8628    0.7710    0.0000 C   0  0  0  0  0  0  0  0  0  0  0  0
   11.2448   -1.1311    0.0000 C   0  0  0  0  0  0  0  0  0  0  0  0
   10.3948    1.1071    0.0000 C   0  0  0  0  0  0  0  0  0  0  0  0
    8.9086   -0.2312    0.0000 C   0  0  0  0  0  0  0  0  0  0  0  0
    2.9511    0.1801    0.0000 C   0  0  0  0  0  0  0  0  0  0  0  0
    4.6453   -0.1801    0.0000 C   0  0  0  0  0  0  0  0  0  0  0  0
    5.5963    0.1290    0.0000 C   0  0  0  0  0  0  0  0  0  0  0  0
    6.3395   -0.5402    0.0000 C   0  0  0  0  0  0  0  0  0  0  0  0
    7.2905   -0.2312    0.0000 C   0  0  0  0  0  0  0  0  0  0  0  0
    2.0000   -0.1290    0.0000 C   0  0  0  0  0  0  0  0  0  0  0  0
    2.6420    1.1311    0.0000 C   0  0  0  0  0  0  0  0  0  0  0  0
    3.2601   -0.7710    0.0000 C   0  0  0  0  0  0  0  0  0  0  0  0
   10.0131    0.3206    0.0000 H   0  0  0  0  0  0  0  0  0  0  0  0
    9.5685   -1.0876    0.0000 H   0  0  0  0  0  0  0  0  0  0  0  0
   10.3482   -0.9219    0.0000 H   0  0  0  0  0  0  0  0  0  0  0  0
   12.3133   -1.0787    0.0000 H   0  0  0  0  0  0  0  0  0  0  0  0
   13.0945   -0.6807    0.0000 H   0  0  0  0  0  0  0  0  0  0  0  0
   12.6965    0.1006    0.0000 H   0  0  0  0  0  0  0  0  0  0  0  0
   12.4525    0.5794    0.0000 H   0  0  0  0  0  0  0  0  0  0  0  0
   12.0544    1.3606    0.0000 H   0  0  0  0  0  0  0  0  0  0  0  0
   11.2732    0.9626    0.0000 H   0  0  0  0  0  0  0  0  0  0  0  0
   10.6551   -0.9395    0.0000 H   0  0  0  0  0  0  0  0  0  0  0  0
   11.0532   -1.7208    0.0000 H   0  0  0  0  0  0  0  0  0  0  0  0
   11.8344   -1.3227    0.0000 H   0  0  0  0  0  0  0  0  0  0  0  0
   11.0013    1.2360    0.0000 H   0  0  0  0  0  0  0  0  0  0  0  0
   10.2659    1.7136    0.0000 H   0  0  0  0  0  0  0  0  0  0  0  0
    9.7884    0.9782    0.0000 H   0  0  0  0  0  0  0  0  0  0  0  0
    4.1567   -0.5618    0.0000 H   0  0  0  0  0  0  0  0  0  0  0  0
    4.9363   -0.7275    0.0000 H   0  0  0  0  0  0  0  0  0  0  0  0
    6.0849    0.5107    0.0000 H   0  0  0  0  0  0  0  0  0  0  0  0
    5.3052    0.6764    0.0000 H   0  0  0  0  0  0  0  0  0  0  0  0
    4.0310    1.0955    0.0000 H   0  0  0  0  0  0  0  0  0  0  0  0
    5.8509   -0.9219    0.0000 H   0  0  0  0  0  0  0  0  0  0  0  0
    6.6305   -1.0876    0.0000 H   0  0  0  0  0  0  0  0  0  0  0  0
    2.6704   -0.9626    0.0000 H   0  0  0  0  0  0  0  0  0  0  0  0
    3.4517   -1.3606    0.0000 H   0  0  0  0  0  0  0  0  0  0  0  0
    3.8497   -0.5794    0.0000 H   0  0  0  0  0  0  0  0  0  0  0  0
    3.2317    1.3227    0.0000 H   0  0  0  0  0  0  0  0  0  0  0  0
    2.4504    1.7208    0.0000 H   0  0  0  0  0  0  0  0  0  0  0  0
    2.0524    0.9395    0.0000 H   0  0  0  0  0  0  0  0  0  0  0  0
    1.8084    0.4607    0.0000 H   0  0  0  0  0  0  0  0  0  0  0  0
    1.4103   -0.3206    0.0000 H   0  0  0  0  0  0  0  0  0  0  0  0
    2.1916   -0.7186    0.0000 H   0  0  0  0  0  0  0  0  0  0  0  0
  1 12  1  0  0  0  0 
  1 17  1  0  0  0  0 
  2 13  1  0  0  0  0 
  2 14  1  0  0  0  0 
  2 40  1  0  0  0  0 
  3  4  1  0  0  0  0 
  3 12  2  0  0  0  0 
  4 17  2  0  0  0  0 
  5  6  1  0  0  0  0 
  5  8  1  0  0  0  0 
  5  9  1  0  0  0  0 
  5 10  1  0  0  0  0 
  6  7  1  0  0  0  0 
  6 11  1  0  0  0  0 
  6 21  1  0  0  0  0 
  7 12  1  0  0  0  0 
  7 22  1  0  0  0  0 
  7 23  1  0  0  0  0 
  8 24  1  0  0  0  0 
  8 25  1  0  0  0  0 
  8 26  1  0  0  0  0 
  9 27  1  0  0  0  0 
  9 28  1  0  0  0  0 
  9 29  1  0  0  0  0 
 10 30  1  0  0  0  0 
 10 31  1  0  0  0  0 
 10 32  1  0  0  0  0 
 11 33  1  0  0  0  0 
 11 34  1  0  0  0  0 
 11 35  1  0  0  0  0 
 13 18  1  0  0  0  0 
 13 19  1  0  0  0  0 
 13 20  1  0  0  0  0 
 14 15  1  0  0  0  0 
 14 36  1  0  0  0  0 
 14 37  1  0  0  0  0 
 15 16  1  0  0  0  0 
 15 38  1  0  0  0  0 
 15 39  1  0  0  0  0 
 16 17  1  0  0  0  0 
 16 41  1  0  0  0  0 
 16 42  1  0  0  0  0 
 18 49  1  0  0  0  0 
 18 50  1  0  0  0  0 
 18 51  1  0  0  0  0 
 19 46  1  0  0  0  0 
 19 47  1  0  0  0  0 
 19 48  1  0  0  0  0 
 20 43  1  0  0  0  0 
 20 44  1  0  0  0  0 
 20 45  1  0  0  0  0 
M  END
> <cdk:Title>
65727590

> <cdk:Remark>
null

> <PUBCHEM_COMPOUND_CID>
65727590

> <PUBCHEM_COMPOUND_CANONICALIZED>
1

> <PUBCHEM_CACTVS_COMPLEXITY>
280

> <PUBCHEM_CACTVS_HBOND_ACCEPTOR>
4

> <PUBCHEM_CACTVS_HBOND_DONOR>
1

> <PUBCHEM_CACTVS_ROTATABLE_BOND>
8

> <PUBCHEM_CACTVS_SUBSKEYS>
AAADceB7AABAAAAAAAAAAAAAAAAAAWAAAAAAAAAAAAAAAAABgAAAHAQYAAAAD4jBQgQCAALAAAgmAAAgAAAQAIBAABAQAIA4AAAAAAIggAAEAAAAGACgAAAQAAAPgAAAAAAAAAAAAAAAAAAAAAAAAAAAAA==

> <PUBCHEM_IUPAC_OPENEYE_NAME>
2-methyl-N-[3-[5-(2,3,3-trimethylbutyl)-1,3,4-thiadiazol-2-yl]propyl]propan-2-amine

> <PUBCHEM_IUPAC_CAS_NAME>
2-methyl-N-[3-[5-(2,3,3-trimethylbutyl)-1,3,4-thiadiazol-2-yl]propyl]-2-propanamine

> <PUBCHEM_IUPAC_NAME>
2-methyl-N-[3-[5-(2,3,3-trimethylbutyl)-1,3,4-thiadiazol-2-yl]propyl]propan-2-amine

> <PUBCHEM_IUPAC_SYSTEMATIC_NAME>
2-methyl-N-[3-[5-(2,3,3-trimethylbutyl)-1,3,4-thiadiazol-2-yl]propyl]propan-2-amine

> <PUBCHEM_IUPAC_TRADITIONAL_NAME>
tert-butyl-[3-[5-(2,3,3-trimethylbutyl)-1,3,4-thiadiazol-2-yl]propyl]amine

> <PUBCHEM_IUPAC_INCHI>
InChI=1S/C16H31N3S/c1-12(15(2,3)4)11-14-19-18-13(20-14)9-8-10-17-16(5,6)7/h12,17H,8-11H2,1-7H3

> <PUBCHEM_IUPAC_INCHIKEY>
WEMUMSNLEJZIQE-UHFFFAOYSA-N

> <PUBCHEM_XLOGP3_AA>
4.4

> <PUBCHEM_EXACT_MASS>
297.223869

> <PUBCHEM_MOLECULAR_FORMULA>
C16H31N3S

> <PUBCHEM_MOLECULAR_WEIGHT>
297.50244

> <PUBCHEM_OPENEYE_CAN_SMILES>
CC(CC1=NN=C(S1)CCCNC(C)(C)C)C(C)(C)C

> <PUBCHEM_OPENEYE_ISO_SMILES>
CC(CC1=NN=C(S1)CCCNC(C)(C)C)C(C)(C)C

> <PUBCHEM_CACTVS_TPSA>
66

> <PUBCHEM_MONOISOTOPIC_WEIGHT>
297.223869

> <PUBCHEM_TOTAL_CHARGE>
0

> <PUBCHEM_HEAVY_ATOM_COUNT>
20

> <PUBCHEM_ATOM_DEF_STEREO_COUNT>
0

> <PUBCHEM_ATOM_UDEF_STEREO_COUNT>
1

> <PUBCHEM_BOND_DEF_STEREO_COUNT>
0

> <PUBCHEM_BOND_UDEF_STEREO_COUNT>
0

> <PUBCHEM_ISOTOPIC_ATOM_COUNT>
0

> <PUBCHEM_COMPONENT_COUNT>
1

> <PUBCHEM_CACTVS_TAUTO_COUNT>
1

> <PUBCHEM_COORDINATE_TYPE>
1

> <PUBCHEM_BONDANNOTATIONS>
1  12  8

$$$$
