22429475
  CDK     0104150955

 59 62  0  0  0  0  0  0  0  0999 V2000
    3.7320    1.0000    0.0000 O   0  0  0  0  0  0  0  0  0  0  0  0
    5.4641    4.0000    0.0000 O   0  0  0  0  0  0  0  0  0  0  0  0
    7.1962    0.0000    0.0000 O   0  0  0  0  0  0  0  0  0  0  0  0
    6.3301   -3.5000    0.0000 O   0  0  0  0  0  0  0  0  0  0  0  0
    9.7942   -1.5000    0.0000 O   0  0  0  0  0  0  0  0  0  0  0  0
    4.5981    2.5000    0.0000 N   0  0  0  0  0  0  0  0  0  0  0  0
    5.4641    1.0000    0.0000 N   0  0  0  0  0  0  0  0  0  0  0  0
    6.3301   -1.5000    0.0000 N   0  0  0  0  0  0  0  0  0  0  0  0
    3.7320    3.0000    0.0000 C   0  0  0  0  0  0  0  0  0  0  0  0
    3.7320    4.0000    0.0000 C   0  0  0  0  0  0  0  0  0  0  0  0
    2.8660    2.5000    0.0000 C   0  0  0  0  0  0  0  0  0  0  0  0
    2.8660    4.5000    0.0000 C   0  0  0  0  0  0  0  0  0  0  0  0
    2.0000    3.0000    0.0000 C   0  0  0  0  0  0  0  0  0  0  0  0
    2.0000    4.0000    0.0000 C   0  0  0  0  0  0  0  0  0  0  0  0
    4.5981    1.5000    0.0000 C   0  0  0  0  0  0  0  0  0  0  0  0
    5.4641    3.0000    0.0000 C   0  0  0  0  0  0  0  0  0  0  0  0
    6.3301    2.5000    0.0000 C   0  0  0  0  0  0  0  0  0  0  0  0
    6.3301    1.5000    0.0000 C   0  0  0  0  0  0  0  0  0  0  0  0
    5.4641    0.0000    0.0000 C   0  0  0  0  0  0  0  0  0  0  0  0
    7.2241    3.0347    0.0000 C   0  0  0  0  0  0  0  0  0  0  0  0
    7.2241    0.9653    0.0000 C   0  0  0  0  0  0  0  0  0  0  0  0
    8.1301    2.5208    0.0000 C   0  0  0  0  0  0  0  0  0  0  0  0
    8.1301    1.4792    0.0000 C   0  0  0  0  0  0  0  0  0  0  0  0
    6.3301   -0.5000    0.0000 C   0  0  0  0  0  0  0  0  0  0  0  0
    7.1962   -2.0000    0.0000 C   0  0  0  0  0  0  0  0  0  0  0  0
    7.1962   -3.0000    0.0000 C   0  0  0  0  0  0  0  0  0  0  0  0
    8.0622   -1.5000    0.0000 C   0  0  0  0  0  0  0  0  0  0  0  0
    8.9282   -2.0000    0.0000 C   0  0  0  0  0  0  0  0  0  0  0  0
    8.0622   -3.5000    0.0000 C   0  0  0  0  0  0  0  0  0  0  0  0
    8.9282   -3.0000    0.0000 C   0  0  0  0  0  0  0  0  0  0  0  0
    6.3301   -4.5000    0.0000 C   0  0  0  0  0  0  0  0  0  0  0  0
   10.6603   -2.0000    0.0000 C   0  0  0  0  0  0  0  0  0  0  0  0
    3.7320    2.3800    0.0000 H   0  0  0  0  0  0  0  0  0  0  0  0
    2.4675    2.0250    0.0000 H   0  0  0  0  0  0  0  0  0  0  0  0
    3.2646    2.0250    0.0000 H   0  0  0  0  0  0  0  0  0  0  0  0
    4.3426    3.8923    0.0000 H   0  0  0  0  0  0  0  0  0  0  0  0
    3.9441    4.5826    0.0000 H   0  0  0  0  0  0  0  0  0  0  0  0
    1.3894    3.1077    0.0000 H   0  0  0  0  0  0  0  0  0  0  0  0
    1.7880    2.4174    0.0000 H   0  0  0  0  0  0  0  0  0  0  0  0
    3.2646    4.9750    0.0000 H   0  0  0  0  0  0  0  0  0  0  0  0
    2.4675    4.9750    0.0000 H   0  0  0  0  0  0  0  0  0  0  0  0
    1.7880    4.5826    0.0000 H   0  0  0  0  0  0  0  0  0  0  0  0
    1.3894    3.8923    0.0000 H   0  0  0  0  0  0  0  0  0  0  0  0
    4.8535    0.1077    0.0000 H   0  0  0  0  0  0  0  0  0  0  0  0
    5.2520   -0.5826    0.0000 H   0  0  0  0  0  0  0  0  0  0  0  0
    7.2169    3.6546    0.0000 H   0  0  0  0  0  0  0  0  0  0  0  0
    7.2169    0.3454    0.0000 H   0  0  0  0  0  0  0  0  0  0  0  0
    8.6659    2.8329    0.0000 H   0  0  0  0  0  0  0  0  0  0  0  0
    8.6659    1.1671    0.0000 H   0  0  0  0  0  0  0  0  0  0  0  0
    5.7932   -1.8100    0.0000 H   0  0  0  0  0  0  0  0  0  0  0  0
    8.0622   -0.8800    0.0000 H   0  0  0  0  0  0  0  0  0  0  0  0
    8.0622   -4.1200    0.0000 H   0  0  0  0  0  0  0  0  0  0  0  0
    9.4651   -3.3100    0.0000 H   0  0  0  0  0  0  0  0  0  0  0  0
    5.7101   -4.5000    0.0000 H   0  0  0  0  0  0  0  0  0  0  0  0
    6.3301   -5.1200    0.0000 H   0  0  0  0  0  0  0  0  0  0  0  0
    6.9501   -4.5000    0.0000 H   0  0  0  0  0  0  0  0  0  0  0  0
   10.3503   -2.5369    0.0000 H   0  0  0  0  0  0  0  0  0  0  0  0
   11.1972   -2.3100    0.0000 H   0  0  0  0  0  0  0  0  0  0  0  0
   10.9703   -1.4631    0.0000 H   0  0  0  0  0  0  0  0  0  0  0  0
  1 15  2  0  0  0  0 
  2 16  2  0  0  0  0 
  3 24  2  0  0  0  0 
  4 26  1  0  0  0  0 
  4 31  1  0  0  0  0 
  5 28  1  0  0  0  0 
  5 32  1  0  0  0  0 
  6  9  1  0  0  0  0 
  6 15  1  0  0  0  0 
  6 16  1  0  0  0  0 
  7 15  1  0  0  0  0 
  7 18  1  0  0  0  0 
  7 19  1  0  0  0  0 
  8 24  1  0  0  0  0 
  8 25  1  0  0  0  0 
  8 50  1  0  0  0  0 
  9 10  1  0  0  0  0 
  9 11  1  0  0  0  0 
  9 33  1  0  0  0  0 
 10 12  1  0  0  0  0 
 10 36  1  0  0  0  0 
 10 37  1  0  0  0  0 
 11 13  1  0  0  0  0 
 11 34  1  0  0  0  0 
 11 35  1  0  0  0  0 
 12 14  1  0  0  0  0 
 12 40  1  0  0  0  0 
 12 41  1  0  0  0  0 
 13 14  1  0  0  0  0 
 13 38  1  0  0  0  0 
 13 39  1  0  0  0  0 
 14 42  1  0  0  0  0 
 14 43  1  0  0  0  0 
 16 17  1  0  0  0  0 
 17 18  1  0  0  0  0 
 17 20  2  0  0  0  0 
 18 21  2  0  0  0  0 
 19 24  1  0  0  0  0 
 19 44  1  0  0  0  0 
 19 45  1  0  0  0  0 
 20 22  1  0  0  0  0 
 20 46  1  0  0  0  0 
 21 23  1  0  0  0  0 
 21 47  1  0  0  0  0 
 22 23  2  0  0  0  0 
 22 48  1  0  0  0  0 
 23 49  1  0  0  0  0 
 25 26  2  0  0  0  0 
 25 27  1  0  0  0  0 
 26 29  1  0  0  0  0 
 27 28  2  0  0  0  0 
 27 51  1  0  0  0  0 
 28 30  1  0  0  0  0 
 29 30  2  0  0  0  0 
 29 52  1  0  0  0  0 
 30 53  1  0  0  0  0 
 31 54  1  0  0  0  0 
 31 55  1  0  0  0  0 
 31 56  1  0  0  0  0 
 32 57  1  0  0  0  0 
 32 58  1  0  0  0  0 
 32 59  1  0  0  0  0 
M  END
> <cdk:Title>
22429475

> <cdk:Remark>
null

> <PUBCHEM_COMPOUND_CID>
22429475

> <PUBCHEM_COMPOUND_CANONICALIZED>
1

> <PUBCHEM_CACTVS_COMPLEXITY>
695

> <PUBCHEM_CACTVS_HBOND_ACCEPTOR>
5

> <PUBCHEM_CACTVS_HBOND_DONOR>
1

> <PUBCHEM_CACTVS_ROTATABLE_BOND>
6

> <PUBCHEM_CACTVS_SUBSKEYS>
AAADceB7OAAAAAAAAAAAAAAAAAAAAAAAAAA8YMEAAAAAAACxQAAAHgAQAAAADCzBmAYzxoPABACIAiVSUACCCAAlIgAIiAGPbMiOZjrE9buVMahu1zvY6efY2AOOAQAAAgACEAACAAAEAAQgAAAAAAAAAA==

> <PUBCHEM_IUPAC_OPENEYE_NAME>
2-(3-cyclohexyl-2,4-dioxo-quinazolin-1-yl)-N-(2,5-dimethoxyphenyl)acetamide

> <PUBCHEM_IUPAC_CAS_NAME>
2-(3-cyclohexyl-2,4-dioxo-1-quinazolinyl)-N-(2,5-dimethoxyphenyl)acetamide

> <PUBCHEM_IUPAC_NAME>
2-(3-cyclohexyl-2,4-dioxoquinazolin-1-yl)-N-(2,5-dimethoxyphenyl)acetamide

> <PUBCHEM_IUPAC_SYSTEMATIC_NAME>
2-[3-cyclohexyl-2,4-bis(oxidanylidene)quinazolin-1-yl]-N-(2,5-dimethoxyphenyl)ethanamide

> <PUBCHEM_IUPAC_TRADITIONAL_NAME>
2-(3-cyclohexyl-2,4-diketo-quinazolin-1-yl)-N-(2,5-dimethoxyphenyl)acetamide

> <PUBCHEM_IUPAC_INCHI>
InChI=1S/C24H27N3O5/c1-31-17-12-13-21(32-2)19(14-17)25-22(28)15-26-20-11-7-6-10-18(20)23(29)27(24(26)30)16-8-4-3-5-9-16/h6-7,10-14,16H,3-5,8-9,15H2,1-2H3,(H,25,28)

> <PUBCHEM_IUPAC_INCHIKEY>
QCWVVOFDRMELQJ-UHFFFAOYSA-N

> <PUBCHEM_XLOGP3_AA>
3.5

> <PUBCHEM_EXACT_MASS>
437.195071

> <PUBCHEM_MOLECULAR_FORMULA>
C24H27N3O5

> <PUBCHEM_MOLECULAR_WEIGHT>
437.48828

> <PUBCHEM_OPENEYE_CAN_SMILES>
COC1=CC(=C(C=C1)OC)NC(=O)CN2C3=CC=CC=C3C(=O)N(C2=O)C4CCCCC4

> <PUBCHEM_OPENEYE_ISO_SMILES>
COC1=CC(=C(C=C1)OC)NC(=O)CN2C3=CC=CC=C3C(=O)N(C2=O)C4CCCCC4

> <PUBCHEM_CACTVS_TPSA>
88.2

> <PUBCHEM_MONOISOTOPIC_WEIGHT>
437.195071

> <PUBCHEM_TOTAL_CHARGE>
0

> <PUBCHEM_HEAVY_ATOM_COUNT>
32

> <PUBCHEM_ATOM_DEF_STEREO_COUNT>
0

> <PUBCHEM_ATOM_UDEF_STEREO_COUNT>
0

> <PUBCHEM_BOND_DEF_STEREO_COUNT>
0

> <PUBCHEM_BOND_UDEF_STEREO_COUNT>
0

> <PUBCHEM_ISOTOPIC_ATOM_COUNT>
0

> <PUBCHEM_COMPONENT_COUNT>
1

> <PUBCHEM_CACTVS_TAUTO_COUNT>
3

> <PUBCHEM_COORDINATE_TYPE>
1

> <PUBCHEM_BONDANNOTATIONS>
16  17  8

$$$$
56075847
  CDK     0104150955

 53 56  0  0  0  0  0  0  0  0999 V2000
    9.7372   -5.5878    0.0000 S   0  0  0  0  0  0  0  0  0  0  0  0
    2.0000    4.0000    0.0000 F   0  0  0  0  0  0  0  0  0  0  0  0
    3.7320   -1.0000    0.0000 O   0  0  0  0  0  0  0  0  0  0  0  0
    9.7942   -3.5000    0.0000 O   0  0  0  0  0  0  0  0  0  0  0  0
    3.7320    5.0000    0.0000 N   0  0  0  0  0  0  0  0  0  0  0  0
    4.5981    0.5000    0.0000 N   0  0  0  0  0  0  0  0  0  0  0  0
    8.0622   -3.5000    0.0000 N   0  0  0  0  0  0  0  0  0  0  0  0
    4.2320    6.5388    0.0000 N   0  0  0  0  0  0  0  0  0  0  0  0
    3.7320    2.0000    0.0000 C   0  0  0  0  0  0  0  0  0  0  0  0
    3.7320    4.0000    0.0000 C   0  0  0  0  0  0  0  0  0  0  0  0
    3.7320    1.0000    0.0000 C   0  0  0  0  0  0  0  0  0  0  0  0
    2.8660    2.5000    0.0000 C   0  0  0  0  0  0  0  0  0  0  0  0
    4.5981    2.5000    0.0000 C   0  0  0  0  0  0  0  0  0  0  0  0
    2.8660    3.5000    0.0000 C   0  0  0  0  0  0  0  0  0  0  0  0
    4.5981    3.5000    0.0000 C   0  0  0  0  0  0  0  0  0  0  0  0
    7.1962   -2.0000    0.0000 C   0  0  0  0  0  0  0  0  0  0  0  0
    5.4641   -1.0000    0.0000 C   0  0  0  0  0  0  0  0  0  0  0  0
    4.5411    5.5878    0.0000 C   0  0  0  0  0  0  0  0  0  0  0  0
    8.0622   -2.5000    0.0000 C   0  0  0  0  0  0  0  0  0  0  0  0
    4.5981   -0.5000    0.0000 C   0  0  0  0  0  0  0  0  0  0  0  0
    2.9230    5.5878    0.0000 C   0  0  0  0  0  0  0  0  0  0  0  0
    7.1962   -1.0000    0.0000 C   0  0  0  0  0  0  0  0  0  0  0  0
    6.3301   -2.5000    0.0000 C   0  0  0  0  0  0  0  0  0  0  0  0
    6.3301   -0.5000    0.0000 C   0  0  0  0  0  0  0  0  0  0  0  0
    5.4641   -2.0000    0.0000 C   0  0  0  0  0  0  0  0  0  0  0  0
    5.4921    5.2788    0.0000 C   0  0  0  0  0  0  0  0  0  0  0  0
    3.2320    6.5388    0.0000 C   0  0  0  0  0  0  0  0  0  0  0  0
    8.9282   -4.0000    0.0000 C   0  0  0  0  0  0  0  0  0  0  0  0
    8.9282   -5.0000    0.0000 C   0  0  0  0  0  0  0  0  0  0  0  0
    8.1192   -5.5878    0.0000 C   0  0  0  0  0  0  0  0  0  0  0  0
    8.4282   -6.5388    0.0000 C   0  0  0  0  0  0  0  0  0  0  0  0
    9.4282   -6.5388    0.0000 C   0  0  0  0  0  0  0  0  0  0  0  0
    3.1215    1.1077    0.0000 H   0  0  0  0  0  0  0  0  0  0  0  0
    3.5200    0.4174    0.0000 H   0  0  0  0  0  0  0  0  0  0  0  0
    2.3291    2.1900    0.0000 H   0  0  0  0  0  0  0  0  0  0  0  0
    5.1350    2.1900    0.0000 H   0  0  0  0  0  0  0  0  0  0  0  0
    5.1350    3.8100    0.0000 H   0  0  0  0  0  0  0  0  0  0  0  0
    5.1350    0.8100    0.0000 H   0  0  0  0  0  0  0  0  0  0  0  0
    8.6728   -2.6077    0.0000 H   0  0  0  0  0  0  0  0  0  0  0  0
    8.2742   -1.9174    0.0000 H   0  0  0  0  0  0  0  0  0  0  0  0
    2.3334    5.3962    0.0000 H   0  0  0  0  0  0  0  0  0  0  0  0
    7.7331   -0.6900    0.0000 H   0  0  0  0  0  0  0  0  0  0  0  0
    6.3301   -3.1200    0.0000 H   0  0  0  0  0  0  0  0  0  0  0  0
    6.3301    0.1200    0.0000 H   0  0  0  0  0  0  0  0  0  0  0  0
    4.9272   -2.3100    0.0000 H   0  0  0  0  0  0  0  0  0  0  0  0
    5.3005    4.6891    0.0000 H   0  0  0  0  0  0  0  0  0  0  0  0
    6.0818    5.0872    0.0000 H   0  0  0  0  0  0  0  0  0  0  0  0
    5.6837    5.8684    0.0000 H   0  0  0  0  0  0  0  0  0  0  0  0
    2.8676    7.0404    0.0000 H   0  0  0  0  0  0  0  0  0  0  0  0
    7.5252   -3.8100    0.0000 H   0  0  0  0  0  0  0  0  0  0  0  0
    7.5295   -5.3962    0.0000 H   0  0  0  0  0  0  0  0  0  0  0  0
    8.0638   -7.0404    0.0000 H   0  0  0  0  0  0  0  0  0  0  0  0
    9.7926   -7.0404    0.0000 H   0  0  0  0  0  0  0  0  0  0  0  0
  1 29  1  0  0  0  0 
  1 32  1  0  0  0  0 
  2 14  1  0  0  0  0 
  3 20  2  0  0  0  0 
  4 28  2  0  0  0  0 
  5 10  1  0  0  0  0 
  5 18  1  0  0  0  0 
  5 21  1  0  0  0  0 
  6 11  1  0  0  0  0 
  6 20  1  0  0  0  0 
  6 38  1  0  0  0  0 
  7 19  1  0  0  0  0 
  7 28  1  0  0  0  0 
  7 50  1  0  0  0  0 
  8 18  2  0  0  0  0 
  8 27  1  0  0  0  0 
  9 11  1  0  0  0  0 
  9 12  2  0  0  0  0 
  9 13  1  0  0  0  0 
 10 14  2  0  0  0  0 
 10 15  1  0  0  0  0 
 11 33  1  0  0  0  0 
 11 34  1  0  0  0  0 
 12 14  1  0  0  0  0 
 12 35  1  0  0  0  0 
 13 15  2  0  0  0  0 
 13 36  1  0  0  0  0 
 15 37  1  0  0  0  0 
 16 19  1  0  0  0  0 
 16 22  2  0  0  0  0 
 16 23  1  0  0  0  0 
 17 20  1  0  0  0  0 
 17 24  2  0  0  0  0 
 17 25  1  0  0  0  0 
 18 26  1  0  0  0  0 
 19 39  1  0  0  0  0 
 19 40  1  0  0  0  0 
 21 27  2  0  0  0  0 
 21 41  1  0  0  0  0 
 22 24  1  0  0  0  0 
 22 42  1  0  0  0  0 
 23 25  2  0  0  0  0 
 23 43  1  0  0  0  0 
 24 44  1  0  0  0  0 
 25 45  1  0  0  0  0 
 26 46  1  0  0  0  0 
 26 47  1  0  0  0  0 
 26 48  1  0  0  0  0 
 27 49  1  0  0  0  0 
 28 29  1  0  0  0  0 
 29 30  2  0  0  0  0 
 30 31  1  0  0  0  0 
 30 51  1  0  0  0  0 
 31 32  2  0  0  0  0 
 31 52  1  0  0  0  0 
 32 53  1  0  0  0  0 
M  END
> <cdk:Title>
56075847

> <cdk:Remark>
null

> <PUBCHEM_COMPOUND_CID>
56075847

> <PUBCHEM_COMPOUND_CANONICALIZED>
1

> <PUBCHEM_CACTVS_COMPLEXITY>
646

> <PUBCHEM_CACTVS_HBOND_ACCEPTOR>
5

> <PUBCHEM_CACTVS_HBOND_DONOR>
2

> <PUBCHEM_CACTVS_ROTATABLE_BOND>
7

> <PUBCHEM_CACTVS_SUBSKEYS>
AAADceB7sQBAAAAAAAAAAAAAAAAAAWJAAAAwYAAAAAAAAAAB9AAAHwQQAAAADAjF2wy/0ZfMEAisAjd3dACDgK01GrBJyJkYdMiIaHLgnZGUIQhohgLoyacYiACOSAAAAAAAAACQAAAAAAAAAAAAAAAAAA==

> <PUBCHEM_IUPAC_OPENEYE_NAME>
N-[[4-[[3-fluoro-4-(2-methylimidazol-1-yl)phenyl]methylcarbamoyl]phenyl]methyl]thiophene-2-carboxamide

> <PUBCHEM_IUPAC_CAS_NAME>
N-[[4-[[[3-fluoro-4-(2-methyl-1-imidazolyl)phenyl]methylamino]-oxomethyl]phenyl]methyl]-2-thiophenecarboxamide

> <PUBCHEM_IUPAC_NAME>
N-[[4-[[3-fluoro-4-(2-methylimidazol-1-yl)phenyl]methylcarbamoyl]phenyl]methyl]thiophene-2-carboxamide

> <PUBCHEM_IUPAC_SYSTEMATIC_NAME>
N-[[4-[[3-fluoranyl-4-(2-methylimidazol-1-yl)phenyl]methylcarbamoyl]phenyl]methyl]thiophene-2-carboxamide

> <PUBCHEM_IUPAC_TRADITIONAL_NAME>
N-[4-[[3-fluoro-4-(2-methylimidazol-1-yl)benzyl]carbamoyl]benzyl]thiophene-2-carboxamide

> <PUBCHEM_IUPAC_INCHI>
InChI=1S/C24H21FN4O2S/c1-16-26-10-11-29(16)21-9-6-18(13-20(21)25)15-27-23(30)19-7-4-17(5-8-19)14-28-24(31)22-3-2-12-32-22/h2-13H,14-15H2,1H3,(H,27,30)(H,28,31)

> <PUBCHEM_IUPAC_INCHIKEY>
DIXJSMYEEJNJNO-UHFFFAOYSA-N

> <PUBCHEM_XLOGP3_AA>
3.7

> <PUBCHEM_EXACT_MASS>
448.136925

> <PUBCHEM_MOLECULAR_FORMULA>
C24H21FN4O2S

> <PUBCHEM_MOLECULAR_WEIGHT>
448.512543

> <PUBCHEM_OPENEYE_CAN_SMILES>
CC1=NC=CN1C2=C(C=C(C=C2)CNC(=O)C3=CC=C(C=C3)CNC(=O)C4=CC=CS4)F

> <PUBCHEM_OPENEYE_ISO_SMILES>
CC1=NC=CN1C2=C(C=C(C=C2)CNC(=O)C3=CC=C(C=C3)CNC(=O)C4=CC=CS4)F

> <PUBCHEM_CACTVS_TPSA>
104

> <PUBCHEM_MONOISOTOPIC_WEIGHT>
448.136925

> <PUBCHEM_TOTAL_CHARGE>
0

> <PUBCHEM_HEAVY_ATOM_COUNT>
32

> <PUBCHEM_ATOM_DEF_STEREO_COUNT>
0

> <PUBCHEM_ATOM_UDEF_STEREO_COUNT>
0

> <PUBCHEM_BOND_DEF_STEREO_COUNT>
0

> <PUBCHEM_BOND_UDEF_STEREO_COUNT>
0

> <PUBCHEM_ISOTOPIC_ATOM_COUNT>
0

> <PUBCHEM_COMPONENT_COUNT>
1

> <PUBCHEM_CACTVS_TAUTO_COUNT>
4

> <PUBCHEM_COORDINATE_TYPE>
1

> <PUBCHEM_BONDANNOTATIONS>
1  29  8

$$$$
