59779392
  CDK     1229141544

 71 75  0  0  0  0  0  0  0  0999 V2000
   13.1090    1.8318    0.0000 N   0  0  3  0  0  0  0  0  0  0  0  0
   11.3769   -1.1682    0.0000 N   0  0  3  0  0  0  0  0  0  0  0  0
   13.1090    5.8318    0.0000 N   0  0  0  0  0  0  0  0  0  0  0  0
    7.9128   -3.1682    0.0000 N   0  0  0  0  0  0  0  0  0  0  0  0
   13.9750    6.3318    0.0000 N   0  0  0  0  0  0  0  0  0  0  0  0
    7.9128   -4.1682    0.0000 N   0  0  0  0  0  0  0  0  0  0  0  0
    4.4487   -6.1682    0.0000 N   0  0  0  0  0  0  0  0  0  0  0  0
   13.1660    7.9196    0.0000 N   0  0  0  0  0  0  0  0  0  0  0  0
   14.7840    7.9196    0.0000 N   0  0  0  0  0  0  0  0  0  0  0  0
    4.4487   -7.1682    0.0000 N   0  0  0  0  0  0  0  0  0  0  0  0
    3.4782   -8.6627    0.0000 N   0  0  0  0  0  0  0  0  0  0  0  0
    2.6691   -7.2615    0.0000 N   0  0  0  0  0  0  0  0  0  0  0  0
   12.2429    0.3318    0.0000 C   0  0  0  0  0  0  0  0  0  0  0  0
   12.2429    1.3318    0.0000 C   0  0  0  0  0  0  0  0  0  0  0  0
   11.3769   -0.1682    0.0000 C   0  0  0  0  0  0  0  0  0  0  0  0
   13.1090    2.8318    0.0000 C   0  0  0  0  0  0  0  0  0  0  0  0
   10.5109   -1.6682    0.0000 C   0  0  0  0  0  0  0  0  0  0  0  0
   13.9750    1.3318    0.0000 C   0  0  0  0  0  0  0  0  0  0  0  0
   12.2429   -1.6682    0.0000 C   0  0  0  0  0  0  0  0  0  0  0  0
   13.9750    3.3318    0.0000 C   0  0  0  0  0  0  0  0  0  0  0  0
   12.2429    3.3318    0.0000 C   0  0  0  0  0  0  0  0  0  0  0  0
   10.5109   -2.6682    0.0000 C   0  0  0  0  0  0  0  0  0  0  0  0
    9.6448   -1.1682    0.0000 C   0  0  0  0  0  0  0  0  0  0  0  0
   13.9750    4.3318    0.0000 C   0  0  0  0  0  0  0  0  0  0  0  0
   12.2429    4.3318    0.0000 C   0  0  0  0  0  0  0  0  0  0  0  0
   13.1090    4.8318    0.0000 C   0  0  0  0  0  0  0  0  0  0  0  0
    9.6448   -3.1682    0.0000 C   0  0  0  0  0  0  0  0  0  0  0  0
    8.7788   -1.6682    0.0000 C   0  0  0  0  0  0  0  0  0  0  0  0
    8.7788   -2.6682    0.0000 C   0  0  0  0  0  0  0  0  0  0  0  0
    7.0468   -4.6682    0.0000 C   0  0  0  0  0  0  0  0  0  0  0  0
    6.1808   -4.1682    0.0000 C   0  0  0  0  0  0  0  0  0  0  0  0
    7.0468   -5.6682    0.0000 C   0  0  0  0  0  0  0  0  0  0  0  0
   13.9750    7.3318    0.0000 C   0  0  0  0  0  0  0  0  0  0  0  0
    5.3147   -5.6682    0.0000 C   0  0  0  0  0  0  0  0  0  0  0  0
    5.3147   -4.6682    0.0000 C   0  0  0  0  0  0  0  0  0  0  0  0
    6.1808   -6.1682    0.0000 C   0  0  0  0  0  0  0  0  0  0  0  0
   14.4750    8.8706    0.0000 C   0  0  0  0  0  0  0  0  0  0  0  0
   13.4750    8.8706    0.0000 C   0  0  0  0  0  0  0  0  0  0  0  0
    3.5827   -7.6682    0.0000 C   0  0  0  0  0  0  0  0  0  0  0  0
    2.5000   -8.8706    0.0000 C   0  0  0  0  0  0  0  0  0  0  0  0
    2.0000   -8.0046    0.0000 C   0  0  0  0  0  0  0  0  0  0  0  0
   12.4550   -0.2508    0.0000 H   0  0  0  0  0  0  0  0  0  0  0  0
   12.8535    0.4395    0.0000 H   0  0  0  0  0  0  0  0  0  0  0  0
   12.0309    1.9144    0.0000 H   0  0  0  0  0  0  0  0  0  0  0  0
   11.6323    1.2241    0.0000 H   0  0  0  0  0  0  0  0  0  0  0  0
   11.1649    0.4144    0.0000 H   0  0  0  0  0  0  0  0  0  0  0  0
   10.7663   -0.2759    0.0000 H   0  0  0  0  0  0  0  0  0  0  0  0
   13.6650    0.7949    0.0000 H   0  0  0  0  0  0  0  0  0  0  0  0
   14.5119    1.0218    0.0000 H   0  0  0  0  0  0  0  0  0  0  0  0
   14.2850    1.8687    0.0000 H   0  0  0  0  0  0  0  0  0  0  0  0
   11.9329   -2.2051    0.0000 H   0  0  0  0  0  0  0  0  0  0  0  0
   12.7799   -1.9782    0.0000 H   0  0  0  0  0  0  0  0  0  0  0  0
   12.5529   -1.1313    0.0000 H   0  0  0  0  0  0  0  0  0  0  0  0
   14.5119    3.0218    0.0000 H   0  0  0  0  0  0  0  0  0  0  0  0
   11.7060    3.0218    0.0000 H   0  0  0  0  0  0  0  0  0  0  0  0
   11.0478   -2.9782    0.0000 H   0  0  0  0  0  0  0  0  0  0  0  0
    9.6448   -0.5482    0.0000 H   0  0  0  0  0  0  0  0  0  0  0  0
   14.5119    4.6418    0.0000 H   0  0  0  0  0  0  0  0  0  0  0  0
   11.7060    4.6418    0.0000 H   0  0  0  0  0  0  0  0  0  0  0  0
    9.6448   -3.7882    0.0000 H   0  0  0  0  0  0  0  0  0  0  0  0
    8.2419   -1.3582    0.0000 H   0  0  0  0  0  0  0  0  0  0  0  0
   12.5720    6.1418    0.0000 H   0  0  0  0  0  0  0  0  0  0  0  0
    6.1808   -3.5482    0.0000 H   0  0  0  0  0  0  0  0  0  0  0  0
    7.5837   -5.9782    0.0000 H   0  0  0  0  0  0  0  0  0  0  0  0
    4.7778   -4.3582    0.0000 H   0  0  0  0  0  0  0  0  0  0  0  0
    6.1808   -6.7882    0.0000 H   0  0  0  0  0  0  0  0  0  0  0  0
    3.9118   -5.8582    0.0000 H   0  0  0  0  0  0  0  0  0  0  0  0
   13.1106    9.3722    0.0000 H   0  0  0  0  0  0  0  0  0  0  0  0
   14.8394    9.3722    0.0000 H   0  0  0  0  0  0  0  0  0  0  0  0
    2.2478   -9.4370    0.0000 H   0  0  0  0  0  0  0  0  0  0  0  0
    1.3834   -7.9398    0.0000 H   0  0  0  0  0  0  0  0  0  0  0  0
  1 14  1  0  0  0  0 
  1 16  1  0  0  0  0 
  1 18  1  0  0  0  0 
  2 15  1  0  0  0  0 
  2 17  1  0  0  0  0 
  2 19  1  0  0  0  0 
  3  5  1  0  0  0  0 
  3 26  1  0  0  0  0 
  3 62  1  0  0  0  0 
  4  6  2  0  0  0  0 
  4 29  1  0  0  0  0 
  5 33  2  0  0  0  0 
  6 30  1  0  0  0  0 
  7 10  1  0  0  0  0 
  7 34  1  0  0  0  0 
  7 67  1  0  0  0  0 
  8 33  1  0  0  0  0 
  8 38  2  0  0  0  0 
  9 33  1  0  0  0  0 
  9 37  2  0  0  0  0 
 10 39  2  0  0  0  0 
 11 39  1  0  0  0  0 
 11 40  2  0  0  0  0 
 12 39  1  0  0  0  0 
 12 41  2  0  0  0  0 
 13 14  1  0  0  0  0 
 13 15  1  0  0  0  0 
 13 42  1  0  0  0  0 
 13 43  1  0  0  0  0 
 14 44  1  0  0  0  0 
 14 45  1  0  0  0  0 
 15 46  1  0  0  0  0 
 15 47  1  0  0  0  0 
 16 20  2  0  0  0  0 
 16 21  1  0  0  0  0 
 17 22  2  0  0  0  0 
 17 23  1  0  0  0  0 
 18 48  1  0  0  0  0 
 18 49  1  0  0  0  0 
 18 50  1  0  0  0  0 
 19 51  1  0  0  0  0 
 19 52  1  0  0  0  0 
 19 53  1  0  0  0  0 
 20 24  1  0  0  0  0 
 20 54  1  0  0  0  0 
 21 25  2  0  0  0  0 
 21 55  1  0  0  0  0 
 22 27  1  0  0  0  0 
 22 56  1  0  0  0  0 
 23 28  2  0  0  0  0 
 23 57  1  0  0  0  0 
 24 26  2  0  0  0  0 
 24 58  1  0  0  0  0 
 25 26  1  0  0  0  0 
 25 59  1  0  0  0  0 
 27 29  2  0  0  0  0 
 27 60  1  0  0  0  0 
 28 29  1  0  0  0  0 
 28 61  1  0  0  0  0 
 30 31  2  0  0  0  0 
 30 32  1  0  0  0  0 
 31 35  1  0  0  0  0 
 31 63  1  0  0  0  0 
 32 36  2  0  0  0  0 
 32 64  1  0  0  0  0 
 34 35  2  0  0  0  0 
 34 36  1  0  0  0  0 
 35 65  1  0  0  0  0 
 36 66  1  0  0  0  0 
 37 38  1  0  0  0  0 
 37 69  1  0  0  0  0 
 38 68  1  0  0  0  0 
 40 41  1  0  0  0  0 
 40 70  1  0  0  0  0 
 41 71  1  0  0  0  0 
M  END
> <cdk:Title>
59779392

> <cdk:Remark>
null

> <PUBCHEM_COMPOUND_CID>
59779392

> <PUBCHEM_COMPOUND_CANONICALIZED>
1

> <PUBCHEM_CACTVS_COMPLEXITY>
994

> <PUBCHEM_CACTVS_HBOND_ACCEPTOR>
8

> <PUBCHEM_CACTVS_HBOND_DONOR>
2

> <PUBCHEM_CACTVS_ROTATABLE_BOND>
12

> <PUBCHEM_CACTVS_SUBSKEYS>
AAADceB7wAAAAAAAAAAAAAAAAAAAAQIAAAAwYMAAAAAAAAABUAAAHAAYAAAACAjBEAQzwINiAACiADRjZACSBAAhAgAYiAAYZIgIICLA0ZGEIAhgkADIyAcQAAAAAACAAAAAAAAAAQAAAAAAAAAAAAAAAA==

> <PUBCHEM_IUPAC_OPENEYE_NAME>
N1-(imidazol-2-ylideneamino)-N4-[3-[4-[4-(2-imidazol-2-ylidenehydrazino)phenyl]azo-N-methyl-anilino]propyl]-N4-methyl-benzene-1,4-diamine

> <PUBCHEM_IUPAC_CAS_NAME>
N1-(2-imidazolylideneamino)-N4-[3-[4-[4-[2-(2-imidazolylidene)hydrazinyl]phenyl]azo-N-methylanilino]propyl]-N4-methylbenzene-1,4-diamine

> <PUBCHEM_IUPAC_NAME>
1-N-(imidazol-2-ylideneamino)-4-N-[3-[4-[[4-(2-imidazol-2-ylidenehydrazinyl)phenyl]diazenyl]-N-methylanilino]propyl]-4-N-methylbenzene-1,4-diamine

> <PUBCHEM_IUPAC_SYSTEMATIC_NAME>
N1-(imidazol-2-ylideneamino)-N4-[3-[[4-[[4-(2-imidazol-2-ylidenehydrazinyl)phenyl]diazenyl]phenyl]-methyl-amino]propyl]-N4-methyl-benzene-1,4-diamine

> <PUBCHEM_IUPAC_TRADITIONAL_NAME>
3-[4-(N'-imidazol-2-ylidenehydrazino)-N-methyl-anilino]propyl-[4-[4-(N'-imidazol-2-ylidenehydrazino)phenyl]azophenyl]-methyl-amine

> <PUBCHEM_IUPAC_INCHI>
InChI=1S/C29H30N12/c1-40(20-3-21-41(2)27-14-10-25(11-15-27)37-39-29-32-18-19-33-29)26-12-8-24(9-13-26)35-34-22-4-6-23(7-5-22)36-38-28-30-16-17-31-28/h4-19,36-37H,3,20-21H2,1-2H3

> <PUBCHEM_IUPAC_INCHIKEY>
VQISWVMAXXMHPR-UHFFFAOYSA-N

> <PUBCHEM_XLOGP3_AA>
5.7

> <PUBCHEM_EXACT_MASS>
546.271639

> <PUBCHEM_MOLECULAR_FORMULA>
C29H30N12

> <PUBCHEM_MOLECULAR_WEIGHT>
546.6289

> <PUBCHEM_OPENEYE_CAN_SMILES>
CN(CCCN(C)C1=CC=C(C=C1)N=NC2=CC=C(C=C2)NN=C3N=CC=N3)C4=CC=C(C=C4)NN=C5N=CC=N5

> <PUBCHEM_OPENEYE_ISO_SMILES>
CN(CCCN(C)C1=CC=C(C=C1)N=NC2=CC=C(C=C2)NN=C3N=CC=N3)C4=CC=C(C=C4)NN=C5N=CC=N5

> <PUBCHEM_CACTVS_TPSA>
129

> <PUBCHEM_MONOISOTOPIC_WEIGHT>
546.271639

> <PUBCHEM_TOTAL_CHARGE>
0

> <PUBCHEM_HEAVY_ATOM_COUNT>
41

> <PUBCHEM_ATOM_DEF_STEREO_COUNT>
0

> <PUBCHEM_ATOM_UDEF_STEREO_COUNT>
0

> <PUBCHEM_BOND_DEF_STEREO_COUNT>
0

> <PUBCHEM_BOND_UDEF_STEREO_COUNT>
0

> <PUBCHEM_ISOTOPIC_ATOM_COUNT>
0

> <PUBCHEM_COMPONENT_COUNT>
1

> <PUBCHEM_CACTVS_TAUTO_COUNT>
6

> <PUBCHEM_COORDINATE_TYPE>
1

> <PUBCHEM_BONDANNOTATIONS>
16  20  8

$$$$
