
  CDK     0202151410

 25 25  0  0  0  0  0  0  0  0999 V2000
   13.1090    1.8318    0.0000 N   0  0  3  0  0  0  0  0  0  0  0  0
   11.3769   -1.1682    0.0000 N   0  0  3  0  0  0  0  0  0  0  0  0
    7.9128   -3.1682    0.0000 N   0  0  0  0  0  0  0  0  0  0  0  0
    7.9128   -4.1682    0.0000 N   0  0  0  0  0  0  0  0  0  0  0  0
   12.2429    0.3318    0.0000 C   0  0  0  0  0  0  0  0  0  0  0  0
   12.2429    1.3318    0.0000 C   0  0  0  0  0  0  0  0  0  0  0  0
   11.3769   -0.1682    0.0000 C   0  0  0  0  0  0  0  0  0  0  0  0
   13.1090    2.8318    0.0000 C   0  0  0  0  0  0  0  0  0  0  0  0
   10.5109   -1.6682    0.0000 C   0  0  0  0  0  0  0  0  0  0  0  0
   13.9750    1.3318    0.0000 C   0  0  0  0  0  0  0  0  0  0  0  0
   12.2429   -1.6682    0.0000 C   0  0  0  0  0  0  0  0  0  0  0  0
   13.9750    3.3318    0.0000 C   0  0  0  0  0  0  0  0  0  0  0  0
   12.2429    3.3318    0.0000 C   0  0  0  0  0  0  0  0  0  0  0  0
   10.5109   -2.6682    0.0000 C   0  0  0  0  0  0  0  0  0  0  0  0
    9.6448   -1.1682    0.0000 C   0  0  0  0  0  0  0  0  0  0  0  0
   13.9750    4.3318    0.0000 C   0  0  0  0  0  0  0  0  0  0  0  0
   12.2429    4.3318    0.0000 C   0  0  0  0  0  0  0  0  0  0  0  0
    9.6448   -3.1682    0.0000 C   0  0  0  0  0  0  0  0  0  0  0  0
    8.7788   -1.6682    0.0000 C   0  0  0  0  0  0  0  0  0  0  0  0
    8.7788   -2.6682    0.0000 C   0  0  0  0  0  0  0  0  0  0  0  0
    7.0468   -4.6682    0.0000 C   0  0  0  0  0  0  0  0  0  0  0  0
    6.1808   -4.1682    0.0000 C   0  0  0  0  0  0  0  0  0  0  0  0
    7.0468   -5.6682    0.0000 C   0  0  0  0  0  0  0  0  0  0  0  0
    5.3147   -4.6682    0.0000 C   0  0  0  0  0  0  0  0  0  0  0  0
    6.1808   -6.1682    0.0000 C   0  0  0  0  0  0  0  0  0  0  0  0
  1  6  1  0  0  0  0 
  1  8  1  0  0  0  0 
  1 10  1  0  0  0  0 
  2  7  1  0  0  0  0 
  2  9  1  0  0  0  0 
  2 11  1  0  0  0  0 
  3  4  1  0  0  0  0 
  3 20  1  0  0  0  0 
  4 21  1  0  0  0  0 
  5  6  1  0  0  0  0 
  5  7  1  0  0  0  0 
  8 12  1  0  0  0  0 
  8 13  1  0  0  0  0 
  9 14  1  0  0  0  0 
  9 15  1  0  0  0  0 
 12 16  1  0  0  0  0 
 13 17  1  0  0  0  0 
 14 18  1  0  0  0  0 
 15 19  1  0  0  0  0 
 18 20  1  0  0  0  0 
 19 20  1  0  0  0  0 
 21 22  1  0  0  0  0 
 21 23  1  0  0  0  0 
 22 24  1  0  0  0  0 
 23 25  1  0  0  0  0 
M  END
> <PUBCHEM_COMPOUND_CID>
59779392

$$$$
