44182792
  CDK     1205141042

 63 66  0  0  0  0  0  0  0  0999 V2000
   14.5812    2.8282    0.0000 S   0  0  0  0  0  0  0  0  0  0  0  0
    6.3301   -3.7787    0.0000 O   0  0  0  0  0  0  0  0  0  0  0  0
   15.5317    2.5175    0.0000 O   0  0  0  0  0  0  0  0  0  0  0  0
   13.6307    3.1388    0.0000 O   0  0  0  0  0  0  0  0  0  0  0  0
   13.3385   -0.9739    0.0000 N   0  0  0  0  0  0  0  0  0  0  0  0
    5.4641   -2.2787    0.0000 N   0  0  0  0  0  0  0  0  0  0  0  0
    2.8660   -2.7787    0.0000 N   0  0  0  0  0  0  0  0  0  0  0  0
   11.5263   -0.7787    0.0000 N   0  0  0  0  0  0  0  0  0  0  0  0
    9.7942   -0.7787    0.0000 N   0  0  0  0  0  0  0  0  0  0  0  0
   10.6603   -2.2787    0.0000 N   0  0  0  0  0  0  0  0  0  0  0  0
    4.5981   -2.7787    0.0000 C   0  0  0  0  0  0  0  0  0  0  0  0
    3.7320   -2.2787    0.0000 C   0  0  0  0  0  0  0  0  0  0  0  0
   12.3923   -1.2787    0.0000 C   0  0  0  0  0  0  0  0  0  0  0  0
   13.6492   -0.0234    0.0000 C   0  0  0  0  0  0  0  0  0  0  0  0
   12.3923   -2.2787    0.0000 C   0  0  0  0  0  0  0  0  0  0  0  0
   13.9221   -1.7787    0.0000 C   0  0  0  0  0  0  0  0  0  0  0  0
   13.3385   -2.5834    0.0000 C   0  0  0  0  0  0  0  0  0  0  0  0
   14.2705    1.8776    0.0000 C   0  0  0  0  0  0  0  0  0  0  0  0
   14.6277    0.1828    0.0000 C   0  0  0  0  0  0  0  0  0  0  0  0
   12.9813    0.7209    0.0000 C   0  0  0  0  0  0  0  0  0  0  0  0
    6.3301   -2.7787    0.0000 C   0  0  0  0  0  0  0  0  0  0  0  0
    7.1962   -2.2787    0.0000 C   0  0  0  0  0  0  0  0  0  0  0  0
   14.9384    1.1333    0.0000 C   0  0  0  0  0  0  0  0  0  0  0  0
   13.2920    1.6714    0.0000 C   0  0  0  0  0  0  0  0  0  0  0  0
    5.4641   -1.2787    0.0000 C   0  0  0  0  0  0  0  0  0  0  0  0
   10.6603   -1.2787    0.0000 C   0  0  0  0  0  0  0  0  0  0  0  0
   11.5263   -2.7787    0.0000 C   0  0  0  0  0  0  0  0  0  0  0  0
    8.9282   -1.2787    0.0000 C   0  0  0  0  0  0  0  0  0  0  0  0
    2.0000   -2.2787    0.0000 C   0  0  0  0  0  0  0  0  0  0  0  0
    2.8660   -3.7787    0.0000 C   0  0  0  0  0  0  0  0  0  0  0  0
    8.0622   -2.7787    0.0000 C   0  0  0  0  0  0  0  0  0  0  0  0
    7.1962   -1.2787    0.0000 C   0  0  0  0  0  0  0  0  0  0  0  0
    8.9282   -2.2787    0.0000 C   0  0  0  0  0  0  0  0  0  0  0  0
    8.0622   -0.7787    0.0000 C   0  0  0  0  0  0  0  0  0  0  0  0
   14.8918    3.7787    0.0000 C   0  0  0  0  0  0  0  0  0  0  0  0
    4.1996   -3.2536    0.0000 H   0  0  0  0  0  0  0  0  0  0  0  0
    4.9966   -3.2536    0.0000 H   0  0  0  0  0  0  0  0  0  0  0  0
    4.1306   -1.8037    0.0000 H   0  0  0  0  0  0  0  0  0  0  0  0
    3.3335   -1.8037    0.0000 H   0  0  0  0  0  0  0  0  0  0  0  0
   14.5421   -1.7787    0.0000 H   0  0  0  0  0  0  0  0  0  0  0  0
   13.5311   -3.1727    0.0000 H   0  0  0  0  0  0  0  0  0  0  0  0
   15.0418   -0.2787    0.0000 H   0  0  0  0  0  0  0  0  0  0  0  0
   12.3747    0.5930    0.0000 H   0  0  0  0  0  0  0  0  0  0  0  0
   15.5450    1.2612    0.0000 H   0  0  0  0  0  0  0  0  0  0  0  0
   12.8779    2.1329    0.0000 H   0  0  0  0  0  0  0  0  0  0  0  0
    6.0841   -1.2787    0.0000 H   0  0  0  0  0  0  0  0  0  0  0  0
    5.4641   -0.6587    0.0000 H   0  0  0  0  0  0  0  0  0  0  0  0
    4.8441   -1.2787    0.0000 H   0  0  0  0  0  0  0  0  0  0  0  0
   11.5263   -3.3987    0.0000 H   0  0  0  0  0  0  0  0  0  0  0  0
    2.3100   -1.7417    0.0000 H   0  0  0  0  0  0  0  0  0  0  0  0
    1.4631   -1.9687    0.0000 H   0  0  0  0  0  0  0  0  0  0  0  0
    1.6900   -2.8156    0.0000 H   0  0  0  0  0  0  0  0  0  0  0  0
    2.2460   -3.7787    0.0000 H   0  0  0  0  0  0  0  0  0  0  0  0
    2.8660   -4.3987    0.0000 H   0  0  0  0  0  0  0  0  0  0  0  0
    3.4860   -3.7787    0.0000 H   0  0  0  0  0  0  0  0  0  0  0  0
    9.7942   -0.1587    0.0000 H   0  0  0  0  0  0  0  0  0  0  0  0
    8.0622   -3.3987    0.0000 H   0  0  0  0  0  0  0  0  0  0  0  0
    6.6592   -0.9687    0.0000 H   0  0  0  0  0  0  0  0  0  0  0  0
    9.4651   -2.5887    0.0000 H   0  0  0  0  0  0  0  0  0  0  0  0
    8.0622   -0.1587    0.0000 H   0  0  0  0  0  0  0  0  0  0  0  0
   15.4812    3.5861    0.0000 H   0  0  0  0  0  0  0  0  0  0  0  0
   15.0844    4.3680    0.0000 H   0  0  0  0  0  0  0  0  0  0  0  0
   14.3025    3.9713    0.0000 H   0  0  0  0  0  0  0  0  0  0  0  0
  1  3  2  0  0  0  0 
  1  4  2  0  0  0  0 
  1 18  1  0  0  0  0 
  1 35  1  0  0  0  0 
  2 21  2  0  0  0  0 
  5 13  1  0  0  0  0 
  5 14  1  0  0  0  0 
  5 16  1  0  0  0  0 
  6 11  1  0  0  0  0 
  6 21  1  0  0  0  0 
  6 25  1  0  0  0  0 
  7 12  1  0  0  0  0 
  7 29  1  0  0  0  0 
  7 30  1  0  0  0  0 
  8 13  2  0  0  0  0 
  8 26  1  0  0  0  0 
  9 26  1  0  0  0  0 
  9 28  1  0  0  0  0 
  9 56  1  0  0  0  0 
 10 26  2  0  0  0  0 
 10 27  1  0  0  0  0 
 11 12  1  0  0  0  0 
 11 36  1  0  0  0  0 
 11 37  1  0  0  0  0 
 12 38  1  0  0  0  0 
 12 39  1  0  0  0  0 
 13 15  1  0  0  0  0 
 14 19  2  0  0  0  0 
 14 20  1  0  0  0  0 
 15 17  1  0  0  0  0 
 15 27  2  0  0  0  0 
 16 17  2  0  0  0  0 
 16 40  1  0  0  0  0 
 17 41  1  0  0  0  0 
 18 23  2  0  0  0  0 
 18 24  1  0  0  0  0 
 19 23  1  0  0  0  0 
 19 42  1  0  0  0  0 
 20 24  2  0  0  0  0 
 20 43  1  0  0  0  0 
 21 22  1  0  0  0  0 
 22 31  2  0  0  0  0 
 22 32  1  0  0  0  0 
 23 44  1  0  0  0  0 
 24 45  1  0  0  0  0 
 25 46  1  0  0  0  0 
 25 47  1  0  0  0  0 
 25 48  1  0  0  0  0 
 27 49  1  0  0  0  0 
 28 33  2  0  0  0  0 
 28 34  1  0  0  0  0 
 29 50  1  0  0  0  0 
 29 51  1  0  0  0  0 
 29 52  1  0  0  0  0 
 30 53  1  0  0  0  0 
 30 54  1  0  0  0  0 
 30 55  1  0  0  0  0 
 31 33  1  0  0  0  0 
 31 57  1  0  0  0  0 
 32 34  2  0  0  0  0 
 32 58  1  0  0  0  0 
 33 59  1  0  0  0  0 
 34 60  1  0  0  0  0 
 35 61  1  0  0  0  0 
 35 62  1  0  0  0  0 
 35 63  1  0  0  0  0 
M  END
> <cdk:Title>
44182792

> <cdk:Remark>
null

> <PUBCHEM_COMPOUND_CID>
44182792

> <PUBCHEM_COMPOUND_CANONICALIZED>
1

> <PUBCHEM_CACTVS_COMPLEXITY>
803

> <PUBCHEM_CACTVS_HBOND_ACCEPTOR>
7

> <PUBCHEM_CACTVS_HBOND_DONOR>
1

> <PUBCHEM_CACTVS_ROTATABLE_BOND>
8

> <PUBCHEM_CACTVS_SUBSKEYS>
AAADceB7sABAAAAAAAAAAAAAAAAAAWAAAAA8YIAAAAAAAFgB/AAAHgQQAAAADAjB2wS/8d/MEAqoAjd3dHDCgCk1CrAJ2Dk4ZNiIaPLg3dGUJQholgLIyacYiQCeCAQAAAAAAAAQCAAAAAAAAAAAAAAAAA==

> <PUBCHEM_IUPAC_OPENEYE_NAME>
N-[2-(dimethylamino)ethyl]-N-methyl-4-[[7-(4-methylsulfonylphenyl)pyrrolo[2,3-d]pyrimidin-2-yl]amino]benzamide

> <PUBCHEM_IUPAC_CAS_NAME>
N-[2-(dimethylamino)ethyl]-N-methyl-4-[[7-(4-methylsulfonylphenyl)-2-pyrrolo[2,3-d]pyrimidinyl]amino]benzamide

> <PUBCHEM_IUPAC_NAME>
N-[2-(dimethylamino)ethyl]-N-methyl-4-[[7-(4-methylsulfonylphenyl)pyrrolo[2,3-d]pyrimidin-2-yl]amino]benzamide

> <PUBCHEM_IUPAC_SYSTEMATIC_NAME>
N-[2-(dimethylamino)ethyl]-N-methyl-4-[[7-(4-methylsulfonylphenyl)pyrrolo[2,3-d]pyrimidin-2-yl]amino]benzamide

> <PUBCHEM_IUPAC_TRADITIONAL_NAME>
N-[2-(dimethylamino)ethyl]-4-[[7-(4-mesylphenyl)pyrrolo[2,3-d]pyrimidin-2-yl]amino]-N-methyl-benzamide

> <PUBCHEM_IUPAC_INCHI>
InChI=1S/C25H28N6O3S/c1-29(2)15-16-30(3)24(32)18-5-7-20(8-6-18)27-25-26-17-19-13-14-31(23(19)28-25)21-9-11-22(12-10-21)35(4,33)34/h5-14,17H,15-16H2,1-4H3,(H,26,27,28)

> <PUBCHEM_IUPAC_INCHIKEY>
MMMAQSLHNPUPFK-UHFFFAOYSA-N

> <PUBCHEM_XLOGP3_AA>
2.9

> <PUBCHEM_EXACT_MASS>
492.19436

> <PUBCHEM_MOLECULAR_FORMULA>
C25H28N6O3S

> <PUBCHEM_MOLECULAR_WEIGHT>
492.59322

> <PUBCHEM_OPENEYE_CAN_SMILES>
CN(C)CCN(C)C(=O)C1=CC=C(C=C1)NC2=NC=C3C=CN(C3=N2)C4=CC=C(C=C4)S(=O)(=O)C

> <PUBCHEM_OPENEYE_ISO_SMILES>
CN(C)CCN(C)C(=O)C1=CC=C(C=C1)NC2=NC=C3C=CN(C3=N2)C4=CC=C(C=C4)S(=O)(=O)C

> <PUBCHEM_CACTVS_TPSA>
109

> <PUBCHEM_MONOISOTOPIC_WEIGHT>
492.19436

> <PUBCHEM_TOTAL_CHARGE>
0

> <PUBCHEM_HEAVY_ATOM_COUNT>
35

> <PUBCHEM_ATOM_DEF_STEREO_COUNT>
0

> <PUBCHEM_ATOM_UDEF_STEREO_COUNT>
0

> <PUBCHEM_BOND_DEF_STEREO_COUNT>
0

> <PUBCHEM_BOND_UDEF_STEREO_COUNT>
0

> <PUBCHEM_ISOTOPIC_ATOM_COUNT>
0

> <PUBCHEM_COMPONENT_COUNT>
1

> <PUBCHEM_CACTVS_TAUTO_COUNT>
6

> <PUBCHEM_COORDINATE_TYPE>
1

> <PUBCHEM_BONDANNOTATIONS>
10  26  8

$$$$
44182792
  CDK     1205141042

 63 66  0  0  0  0  0  0  0  0999 V2000
   14.5812    2.8282    0.0000 S   0  0  0  0  0  0  0  0  0  0  0  0
    6.3301   -3.7787    0.0000 O   0  0  0  0  0  0  0  0  0  0  0  0
   15.5317    2.5175    0.0000 O   0  0  0  0  0  0  0  0  0  0  0  0
   13.6307    3.1388    0.0000 O   0  0  0  0  0  0  0  0  0  0  0  0
   13.3385   -0.9739    0.0000 N   0  0  0  0  0  0  0  0  0  0  0  0
    5.4641   -2.2787    0.0000 N   0  0  0  0  0  0  0  0  0  0  0  0
    2.8660   -2.7787    0.0000 N   0  0  0  0  0  0  0  0  0  0  0  0
   11.5263   -0.7787    0.0000 N   0  0  0  0  0  0  0  0  0  0  0  0
    9.7942   -0.7787    0.0000 N   0  0  0  0  0  0  0  0  0  0  0  0
   10.6603   -2.2787    0.0000 N   0  0  0  0  0  0  0  0  0  0  0  0
    4.5981   -2.7787    0.0000 C   0  0  0  0  0  0  0  0  0  0  0  0
    3.7320   -2.2787    0.0000 C   0  0  0  0  0  0  0  0  0  0  0  0
   12.3923   -1.2787    0.0000 C   0  0  0  0  0  0  0  0  0  0  0  0
   13.6492   -0.0234    0.0000 C   0  0  0  0  0  0  0  0  0  0  0  0
   12.3923   -2.2787    0.0000 C   0  0  0  0  0  0  0  0  0  0  0  0
   13.9221   -1.7787    0.0000 C   0  0  0  0  0  0  0  0  0  0  0  0
   13.3385   -2.5834    0.0000 C   0  0  0  0  0  0  0  0  0  0  0  0
   14.2705    1.8776    0.0000 C   0  0  0  0  0  0  0  0  0  0  0  0
   14.6277    0.1828    0.0000 C   0  0  0  0  0  0  0  0  0  0  0  0
   12.9813    0.7209    0.0000 C   0  0  0  0  0  0  0  0  0  0  0  0
    6.3301   -2.7787    0.0000 C   0  0  0  0  0  0  0  0  0  0  0  0
    7.1962   -2.2787    0.0000 C   0  0  0  0  0  0  0  0  0  0  0  0
   14.9384    1.1333    0.0000 C   0  0  0  0  0  0  0  0  0  0  0  0
   13.2920    1.6714    0.0000 C   0  0  0  0  0  0  0  0  0  0  0  0
    5.4641   -1.2787    0.0000 C   0  0  0  0  0  0  0  0  0  0  0  0
   10.6603   -1.2787    0.0000 C   0  0  0  0  0  0  0  0  0  0  0  0
   11.5263   -2.7787    0.0000 C   0  0  0  0  0  0  0  0  0  0  0  0
    8.9282   -1.2787    0.0000 C   0  0  0  0  0  0  0  0  0  0  0  0
    2.0000   -2.2787    0.0000 C   0  0  0  0  0  0  0  0  0  0  0  0
    2.8660   -3.7787    0.0000 C   0  0  0  0  0  0  0  0  0  0  0  0
    8.0622   -2.7787    0.0000 C   0  0  0  0  0  0  0  0  0  0  0  0
    7.1962   -1.2787    0.0000 C   0  0  0  0  0  0  0  0  0  0  0  0
    8.9282   -2.2787    0.0000 C   0  0  0  0  0  0  0  0  0  0  0  0
    8.0622   -0.7787    0.0000 C   0  0  0  0  0  0  0  0  0  0  0  0
   14.8918    3.7787    0.0000 C   0  0  0  0  0  0  0  0  0  0  0  0
    4.1996   -3.2536    0.0000 H   0  0  0  0  0  0  0  0  0  0  0  0
    4.9966   -3.2536    0.0000 H   0  0  0  0  0  0  0  0  0  0  0  0
    4.1306   -1.8037    0.0000 H   0  0  0  0  0  0  0  0  0  0  0  0
    3.3335   -1.8037    0.0000 H   0  0  0  0  0  0  0  0  0  0  0  0
   14.5421   -1.7787    0.0000 H   0  0  0  0  0  0  0  0  0  0  0  0
   13.5311   -3.1727    0.0000 H   0  0  0  0  0  0  0  0  0  0  0  0
   15.0418   -0.2787    0.0000 H   0  0  0  0  0  0  0  0  0  0  0  0
   12.3747    0.5930    0.0000 H   0  0  0  0  0  0  0  0  0  0  0  0
   15.5450    1.2612    0.0000 H   0  0  0  0  0  0  0  0  0  0  0  0
   12.8779    2.1329    0.0000 H   0  0  0  0  0  0  0  0  0  0  0  0
    6.0841   -1.2787    0.0000 H   0  0  0  0  0  0  0  0  0  0  0  0
    5.4641   -0.6587    0.0000 H   0  0  0  0  0  0  0  0  0  0  0  0
    4.8441   -1.2787    0.0000 H   0  0  0  0  0  0  0  0  0  0  0  0
   11.5263   -3.3987    0.0000 H   0  0  0  0  0  0  0  0  0  0  0  0
    2.3100   -1.7417    0.0000 H   0  0  0  0  0  0  0  0  0  0  0  0
    1.4631   -1.9687    0.0000 H   0  0  0  0  0  0  0  0  0  0  0  0
    1.6900   -2.8156    0.0000 H   0  0  0  0  0  0  0  0  0  0  0  0
    2.2460   -3.7787    0.0000 H   0  0  0  0  0  0  0  0  0  0  0  0
    2.8660   -4.3987    0.0000 H   0  0  0  0  0  0  0  0  0  0  0  0
    3.4860   -3.7787    0.0000 H   0  0  0  0  0  0  0  0  0  0  0  0
    9.7942   -0.1587    0.0000 H   0  0  0  0  0  0  0  0  0  0  0  0
    8.0622   -3.3987    0.0000 H   0  0  0  0  0  0  0  0  0  0  0  0
    6.6592   -0.9687    0.0000 H   0  0  0  0  0  0  0  0  0  0  0  0
    9.4651   -2.5887    0.0000 H   0  0  0  0  0  0  0  0  0  0  0  0
    8.0622   -0.1587    0.0000 H   0  0  0  0  0  0  0  0  0  0  0  0
   15.4812    3.5861    0.0000 H   0  0  0  0  0  0  0  0  0  0  0  0
   15.0844    4.3680    0.0000 H   0  0  0  0  0  0  0  0  0  0  0  0
   14.3025    3.9713    0.0000 H   0  0  0  0  0  0  0  0  0  0  0  0
  1  3  2  0  0  0  0 
  1  4  2  0  0  0  0 
  1 18  1  0  0  0  0 
  1 35  1  0  0  0  0 
  2 21  2  0  0  0  0 
  5 13  1  0  0  0  0 
  5 14  1  0  0  0  0 
  5 16  1  0  0  0  0 
  6 11  1  0  0  0  0 
  6 21  1  0  0  0  0 
  6 25  1  0  0  0  0 
  7 12  1  0  0  0  0 
  7 29  1  0  0  0  0 
  7 30  1  0  0  0  0 
  8 13  2  0  0  0  0 
  8 26  1  0  0  0  0 
  9 26  1  0  0  0  0 
  9 28  1  0  0  0  0 
  9 56  1  0  0  0  0 
 10 26  2  0  0  0  0 
 10 27  1  0  0  0  0 
 11 12  1  0  0  0  0 
 11 36  1  0  0  0  0 
 11 37  1  0  0  0  0 
 12 38  1  0  0  0  0 
 12 39  1  0  0  0  0 
 13 15  1  0  0  0  0 
 14 19  2  0  0  0  0 
 14 20  1  0  0  0  0 
 15 17  1  0  0  0  0 
 15 27  2  0  0  0  0 
 16 17  2  0  0  0  0 
 16 40  1  0  0  0  0 
 17 41  1  0  0  0  0 
 18 23  2  0  0  0  0 
 18 24  1  0  0  0  0 
 19 23  1  0  0  0  0 
 19 42  1  0  0  0  0 
 20 24  2  0  0  0  0 
 20 43  1  0  0  0  0 
 21 22  1  0  0  0  0 
 22 31  2  0  0  0  0 
 22 32  1  0  0  0  0 
 23 44  1  0  0  0  0 
 24 45  1  0  0  0  0 
 25 46  1  0  0  0  0 
 25 47  1  0  0  0  0 
 25 48  1  0  0  0  0 
 27 49  1  0  0  0  0 
 28 33  2  0  0  0  0 
 28 34  1  0  0  0  0 
 29 50  1  0  0  0  0 
 29 51  1  0  0  0  0 
 29 52  1  0  0  0  0 
 30 53  1  0  0  0  0 
 30 54  1  0  0  0  0 
 30 55  1  0  0  0  0 
 31 33  1  0  0  0  0 
 31 57  1  0  0  0  0 
 32 34  2  0  0  0  0 
 32 58  1  0  0  0  0 
 33 59  1  0  0  0  0 
 34 60  1  0  0  0  0 
 35 61  1  0  0  0  0 
 35 62  1  0  0  0  0 
 35 63  1  0  0  0  0 
M  END
> <cdk:Title>
44182792

> <cdk:Remark>
null

> <PUBCHEM_COMPOUND_CID>
44182792

> <PUBCHEM_COMPOUND_CANONICALIZED>
1

> <PUBCHEM_CACTVS_COMPLEXITY>
803

> <PUBCHEM_CACTVS_HBOND_ACCEPTOR>
7

> <PUBCHEM_CACTVS_HBOND_DONOR>
1

> <PUBCHEM_CACTVS_ROTATABLE_BOND>
8

> <PUBCHEM_CACTVS_SUBSKEYS>
AAADceB7sABAAAAAAAAAAAAAAAAAAWAAAAA8YIAAAAAAAFgB/AAAHgQQAAAADAjB2wS/8d/MEAqoAjd3dHDCgCk1CrAJ2Dk4ZNiIaPLg3dGUJQholgLIyacYiQCeCAQAAAAAAAAQCAAAAAAAAAAAAAAAAA==

> <PUBCHEM_IUPAC_OPENEYE_NAME>
N-[2-(dimethylamino)ethyl]-N-methyl-4-[[7-(4-methylsulfonylphenyl)pyrrolo[2,3-d]pyrimidin-2-yl]amino]benzamide

> <PUBCHEM_IUPAC_CAS_NAME>
N-[2-(dimethylamino)ethyl]-N-methyl-4-[[7-(4-methylsulfonylphenyl)-2-pyrrolo[2,3-d]pyrimidinyl]amino]benzamide

> <PUBCHEM_IUPAC_NAME>
N-[2-(dimethylamino)ethyl]-N-methyl-4-[[7-(4-methylsulfonylphenyl)pyrrolo[2,3-d]pyrimidin-2-yl]amino]benzamide

> <PUBCHEM_IUPAC_SYSTEMATIC_NAME>
N-[2-(dimethylamino)ethyl]-N-methyl-4-[[7-(4-methylsulfonylphenyl)pyrrolo[2,3-d]pyrimidin-2-yl]amino]benzamide

> <PUBCHEM_IUPAC_TRADITIONAL_NAME>
N-[2-(dimethylamino)ethyl]-4-[[7-(4-mesylphenyl)pyrrolo[2,3-d]pyrimidin-2-yl]amino]-N-methyl-benzamide

> <PUBCHEM_IUPAC_INCHI>
InChI=1S/C25H28N6O3S/c1-29(2)15-16-30(3)24(32)18-5-7-20(8-6-18)27-25-26-17-19-13-14-31(23(19)28-25)21-9-11-22(12-10-21)35(4,33)34/h5-14,17H,15-16H2,1-4H3,(H,26,27,28)

> <PUBCHEM_IUPAC_INCHIKEY>
MMMAQSLHNPUPFK-UHFFFAOYSA-N

> <PUBCHEM_XLOGP3_AA>
2.9

> <PUBCHEM_EXACT_MASS>
492.19436

> <PUBCHEM_MOLECULAR_FORMULA>
C25H28N6O3S

> <PUBCHEM_MOLECULAR_WEIGHT>
492.59322

> <PUBCHEM_OPENEYE_CAN_SMILES>
CN(C)CCN(C)C(=O)C1=CC=C(C=C1)NC2=NC=C3C=CN(C3=N2)C4=CC=C(C=C4)S(=O)(=O)C

> <PUBCHEM_OPENEYE_ISO_SMILES>
CN(C)CCN(C)C(=O)C1=CC=C(C=C1)NC2=NC=C3C=CN(C3=N2)C4=CC=C(C=C4)S(=O)(=O)C

> <PUBCHEM_CACTVS_TPSA>
109

> <PUBCHEM_MONOISOTOPIC_WEIGHT>
492.19436

> <PUBCHEM_TOTAL_CHARGE>
0

> <PUBCHEM_HEAVY_ATOM_COUNT>
35

> <PUBCHEM_ATOM_DEF_STEREO_COUNT>
0

> <PUBCHEM_ATOM_UDEF_STEREO_COUNT>
0

> <PUBCHEM_BOND_DEF_STEREO_COUNT>
0

> <PUBCHEM_BOND_UDEF_STEREO_COUNT>
0

> <PUBCHEM_ISOTOPIC_ATOM_COUNT>
0

> <PUBCHEM_COMPONENT_COUNT>
1

> <PUBCHEM_CACTVS_TAUTO_COUNT>
6

> <PUBCHEM_COORDINATE_TYPE>
1

> <PUBCHEM_BONDANNOTATIONS>
10  26  8

$$$$
