48497298
  CDK     1205141042

 40 41  0  0  0  0  0  0  0  0999 V2000
    4.2608    2.7262    0.0000 O   0  0  0  0  0  0  0  0  0  0  0  0
    3.0852    1.1082    0.0000 O   0  0  0  0  0  0  0  0  0  0  0  0
    4.4865    0.0901    0.0000 N   0  0  0  0  0  0  0  0  0  0  0  0
    4.2077   -1.6700    0.0000 N   0  0  0  0  0  0  0  0  0  0  0  0
    2.5896   -1.6700    0.0000 N   0  0  0  0  0  0  0  0  0  0  0  0
    2.8987   -0.7189    0.0000 N   0  0  0  0  0  0  0  0  0  0  0  0
    4.2647   -3.7578    0.0000 N   0  0  0  0  0  0  0  0  0  0  0  0
    4.4418    4.4488    0.0000 C   0  0  0  0  0  0  0  0  0  0  0  0
    4.8486    3.5352    0.0000 C   0  0  0  0  0  0  0  0  0  0  0  0
    4.6675    1.8126    0.0000 C   0  0  3  0  0  0  0  0  0  0  0  0
    5.0296    5.2578    0.0000 C   0  0  0  0  0  0  0  0  0  0  0  0
    3.4473    4.5533    0.0000 C   0  0  0  0  0  0  0  0  0  0  0  0
    5.6620    1.7081    0.0000 C   0  0  0  0  0  0  0  0  0  0  0  0
    4.0797    1.0036    0.0000 C   0  0  0  0  0  0  0  0  0  0  0  0
    3.8987   -0.7189    0.0000 C   0  0  0  0  0  0  0  0  0  0  0  0
    3.3987   -2.2578    0.0000 C   0  0  0  0  0  0  0  0  0  0  0  0
    3.3987   -3.2578    0.0000 C   0  0  0  0  0  0  0  0  0  0  0  0
    2.5326   -3.7578    0.0000 C   0  0  0  0  0  0  0  0  0  0  0  0
    2.5326   -4.7578    0.0000 C   0  0  0  0  0  0  0  0  0  0  0  0
    3.3987   -5.2578    0.0000 C   0  0  0  0  0  0  0  0  0  0  0  0
    4.2647   -4.7578    0.0000 C   0  0  0  0  0  0  0  0  0  0  0  0
    4.1896    5.0152    0.0000 H   0  0  0  0  0  0  0  0  0  0  0  0
    5.2792    3.0892    0.0000 H   0  0  0  0  0  0  0  0  0  0  0  0
    5.3626    3.8819    0.0000 H   0  0  0  0  0  0  0  0  0  0  0  0
    4.0509    1.8775    0.0000 H   0  0  0  0  0  0  0  0  0  0  0  0
    3.5121    5.1699    0.0000 H   0  0  0  0  0  0  0  0  0  0  0  0
    5.5312    4.8934    0.0000 H   0  0  0  0  0  0  0  0  0  0  0  0
    5.3940    5.7594    0.0000 H   0  0  0  0  0  0  0  0  0  0  0  0
    4.5280    5.6222    0.0000 H   0  0  0  0  0  0  0  0  0  0  0  0
    2.8307    4.6181    0.0000 H   0  0  0  0  0  0  0  0  0  0  0  0
    3.3825    3.9367    0.0000 H   0  0  0  0  0  0  0  0  0  0  0  0
    5.5972    1.0915    0.0000 H   0  0  0  0  0  0  0  0  0  0  0  0
    6.2786    1.6433    0.0000 H   0  0  0  0  0  0  0  0  0  0  0  0
    5.7268    2.3247    0.0000 H   0  0  0  0  0  0  0  0  0  0  0  0
    5.1031    0.0253    0.0000 H   0  0  0  0  0  0  0  0  0  0  0  0
    2.0000   -1.8616    0.0000 H   0  0  0  0  0  0  0  0  0  0  0  0
    1.9957   -3.4478    0.0000 H   0  0  0  0  0  0  0  0  0  0  0  0
    1.9957   -5.0678    0.0000 H   0  0  0  0  0  0  0  0  0  0  0  0
    3.3987   -5.8778    0.0000 H   0  0  0  0  0  0  0  0  0  0  0  0
    4.8016   -5.0678    0.0000 H   0  0  0  0  0  0  0  0  0  0  0  0
  1  9  1  0  0  0  0 
  1 10  1  0  0  0  0 
  2 14  2  0  0  0  0 
  3 14  1  0  0  0  0 
  3 15  1  0  0  0  0 
  3 35  1  0  0  0  0 
  4 15  1  0  0  0  0 
  4 16  2  0  0  0  0 
  5  6  1  0  0  0  0 
  5 16  1  0  0  0  0 
  5 36  1  0  0  0  0 
  6 15  2  0  0  0  0 
  7 17  1  0  0  0  0 
  7 21  2  0  0  0  0 
  8  9  1  0  0  0  0 
  8 11  1  0  0  0  0 
  8 12  1  0  0  0  0 
  8 22  1  0  0  0  0 
  9 23  1  0  0  0  0 
  9 24  1  0  0  0  0 
 10 13  1  0  0  0  0 
 10 14  1  0  0  0  0 
 10 25  1  0  0  0  0 
 11 27  1  0  0  0  0 
 11 28  1  0  0  0  0 
 11 29  1  0  0  0  0 
 12 26  1  0  0  0  0 
 12 30  1  0  0  0  0 
 12 31  1  0  0  0  0 
 13 32  1  0  0  0  0 
 13 33  1  0  0  0  0 
 13 34  1  0  0  0  0 
 16 17  1  0  0  0  0 
 17 18  2  0  0  0  0 
 18 19  1  0  0  0  0 
 18 37  1  0  0  0  0 
 19 20  2  0  0  0  0 
 19 38  1  0  0  0  0 
 20 21  1  0  0  0  0 
 20 39  1  0  0  0  0 
 21 40  1  0  0  0  0 
M  END
> <cdk:Title>
48497298

> <cdk:Remark>
null

> <PUBCHEM_COMPOUND_CID>
48497298

> <PUBCHEM_COMPOUND_CANONICALIZED>
1

> <PUBCHEM_CACTVS_COMPLEXITY>
339

> <PUBCHEM_CACTVS_HBOND_ACCEPTOR>
5

> <PUBCHEM_CACTVS_HBOND_DONOR>
2

> <PUBCHEM_CACTVS_ROTATABLE_BOND>
6

> <PUBCHEM_CACTVS_SUBSKEYS>
AAADceBzsAAAAAAAAAAAAAAAAAAAAWAAAAAsAAAAAAAAAAAB4AAAHgAYAAAADRzhlwY/kJbrFACqATd3dAKSgCuxAqAd+CF4ZJiKaOLAmZWXIAh4mQLYyAcQAAAAAAAAAAAAAAAAAAAAAAAAAAAAAAAAAA==

> <PUBCHEM_IUPAC_OPENEYE_NAME>
2-isobutoxy-N-[5-(2-pyridyl)-1H-1,2,4-triazol-3-yl]propanamide

> <PUBCHEM_IUPAC_CAS_NAME>
2-(2-methylpropoxy)-N-[5-(2-pyridinyl)-1H-1,2,4-triazol-3-yl]propanamide

> <PUBCHEM_IUPAC_NAME>
2-(2-methylpropoxy)-N-(5-pyridin-2-yl-1H-1,2,4-triazol-3-yl)propanamide

> <PUBCHEM_IUPAC_SYSTEMATIC_NAME>
2-(2-methylpropoxy)-N-(5-pyridin-2-yl-1H-1,2,4-triazol-3-yl)propanamide

> <PUBCHEM_IUPAC_TRADITIONAL_NAME>
2-isobutoxy-N-[5-(2-pyridyl)-1H-1,2,4-triazol-3-yl]propionamide

> <PUBCHEM_IUPAC_INCHI>
InChI=1S/C14H19N5O2/c1-9(2)8-21-10(3)13(20)17-14-16-12(18-19-14)11-6-4-5-7-15-11/h4-7,9-10H,8H2,1-3H3,(H2,16,17,18,19,20)

> <PUBCHEM_IUPAC_INCHIKEY>
YNJJYOYXLGHKHM-UHFFFAOYSA-N

> <PUBCHEM_XLOGP3_AA>
1.7

> <PUBCHEM_EXACT_MASS>
289.153875

> <PUBCHEM_MOLECULAR_FORMULA>
C14H19N5O2

> <PUBCHEM_MOLECULAR_WEIGHT>
289.33296

> <PUBCHEM_OPENEYE_CAN_SMILES>
CC(C)COC(C)C(=O)NC1=NNC(=N1)C2=CC=CC=N2

> <PUBCHEM_OPENEYE_ISO_SMILES>
CC(C)COC(C)C(=O)NC1=NNC(=N1)C2=CC=CC=N2

> <PUBCHEM_CACTVS_TPSA>
92.8

> <PUBCHEM_MONOISOTOPIC_WEIGHT>
289.153875

> <PUBCHEM_TOTAL_CHARGE>
0

> <PUBCHEM_HEAVY_ATOM_COUNT>
21

> <PUBCHEM_ATOM_DEF_STEREO_COUNT>
0

> <PUBCHEM_ATOM_UDEF_STEREO_COUNT>
1

> <PUBCHEM_BOND_DEF_STEREO_COUNT>
0

> <PUBCHEM_BOND_UDEF_STEREO_COUNT>
0

> <PUBCHEM_ISOTOPIC_ATOM_COUNT>
0

> <PUBCHEM_COMPONENT_COUNT>
1

> <PUBCHEM_CACTVS_TAUTO_COUNT>
56

> <PUBCHEM_COORDINATE_TYPE>
1

> <PUBCHEM_BONDANNOTATIONS>
10  13  3

$$$$
