
  CDK     0224152114

 10  0  0  0  0  0  0  0  0  0999 V2000
    4.6350    0.7430    0.0000 F   0  0  0  0  0  0  0  0  0  0  0  0
    5.6350   -0.9890    0.0000 F   0  0  0  0  0  0  0  0  0  0  0  0
    6.8671    0.8770    0.0000 F   0  0  0  0  0  0  0  0  0  0  0  0
    5.5010    1.2430    0.0000 F   0  0  0  0  0  0  0  0  0  0  0  0
    6.5010   -0.4890    0.0000 F   0  0  0  0  0  0  0  0  0  0  0  0
    2.5369   -0.6230    0.0000 N   0  0  0  0  0  0  0  0  0  0  0  0
    4.2690   -0.6230    0.0000 C   0  0  0  0  0  0  0  0  0  0  0  0
    5.1350   -0.1230    0.0000 C   0  0  0  0  0  0  0  0  0  0  0  0
    3.4030   -0.1230    0.0000 C   0  0  0  0  0  0  0  0  0  0  0  0
    6.0010    0.3770    0.0000 C   0  0  0  0  0  0  0  0  0  0  0  0
M  END
> <PUBCHEM_COMPOUND_CID>
15754740

$$$$
