52473889
  CDK     1229141458

 47 49  0  0  0  0  0  0  0  0999 V2000
    2.8660   -6.2306    0.0000 Cl  0  0  0  0  0  0  0  0  0  0  0  0
    4.5981    0.7694    0.0000 S   0  0  0  0  0  0  0  0  0  0  0  0
    5.5686    2.2640    0.0000 O   0  0  0  0  0  0  0  0  0  0  0  0
    2.8660   -2.2306    0.0000 O   0  0  0  0  0  0  0  0  0  0  0  0
    7.0468    1.6058    0.0000 N   0  0  0  0  0  0  0  0  0  0  0  0
    6.3776    0.8627    0.0000 N   0  0  0  0  0  0  0  0  0  0  0  0
    7.9480    3.4899    0.0000 C   0  0  2  0  0  0  0  0  0  0  0  0
    6.9535    3.3854    0.0000 C   0  0  0  0  0  0  0  0  0  0  0  0
    8.3548    4.4035    0.0000 C   0  0  0  0  0  0  0  0  0  0  0  0
    8.5358    2.6809    0.0000 C   0  0  0  0  0  0  0  0  0  0  0  0
    6.5468    2.4719    0.0000 C   0  0  0  0  0  0  0  0  0  0  0  0
    7.7670    5.2125    0.0000 C   0  0  0  0  0  0  0  0  0  0  0  0
    9.3493    4.5080    0.0000 C   0  0  0  0  0  0  0  0  0  0  0  0
    8.1737    6.1260    0.0000 C   0  0  0  0  0  0  0  0  0  0  0  0
    9.7560    5.4216    0.0000 C   0  0  0  0  0  0  0  0  0  0  0  0
    3.7320   -0.7306    0.0000 C   0  0  0  0  0  0  0  0  0  0  0  0
    4.5981   -0.2306    0.0000 C   0  0  0  0  0  0  0  0  0  0  0  0
    9.1682    6.2306    0.0000 C   0  0  0  0  0  0  0  0  0  0  0  0
    5.4641    1.2694    0.0000 C   0  0  0  0  0  0  0  0  0  0  0  0
    3.7320   -1.7306    0.0000 C   0  0  0  0  0  0  0  0  0  0  0  0
    2.8660   -3.2306    0.0000 C   0  0  0  0  0  0  0  0  0  0  0  0
    3.7320   -3.7306    0.0000 C   0  0  0  0  0  0  0  0  0  0  0  0
    2.0000   -3.7306    0.0000 C   0  0  0  0  0  0  0  0  0  0  0  0
    3.7320   -4.7306    0.0000 C   0  0  0  0  0  0  0  0  0  0  0  0
    2.0000   -4.7306    0.0000 C   0  0  0  0  0  0  0  0  0  0  0  0
    2.8660   -5.2306    0.0000 C   0  0  0  0  0  0  0  0  0  0  0  0
    7.6959    2.9235    0.0000 H   0  0  0  0  0  0  0  0  0  0  0  0
    6.9968    4.0039    0.0000 H   0  0  0  0  0  0  0  0  0  0  0  0
    6.3519    3.5354    0.0000 H   0  0  0  0  0  0  0  0  0  0  0  0
    8.0342    2.3165    0.0000 H   0  0  0  0  0  0  0  0  0  0  0  0
    8.9002    2.1793    0.0000 H   0  0  0  0  0  0  0  0  0  0  0  0
    9.0374    3.0454    0.0000 H   0  0  0  0  0  0  0  0  0  0  0  0
    7.1504    5.1477    0.0000 H   0  0  0  0  0  0  0  0  0  0  0  0
    9.7137    4.0064    0.0000 H   0  0  0  0  0  0  0  0  0  0  0  0
    3.5200   -0.1480    0.0000 H   0  0  0  0  0  0  0  0  0  0  0  0
    3.1215   -0.8382    0.0000 H   0  0  0  0  0  0  0  0  0  0  0  0
    7.8093    6.6276    0.0000 H   0  0  0  0  0  0  0  0  0  0  0  0
   10.3726    5.4864    0.0000 H   0  0  0  0  0  0  0  0  0  0  0  0
    4.8101   -0.8132    0.0000 H   0  0  0  0  0  0  0  0  0  0  0  0
    5.2087   -0.1229    0.0000 H   0  0  0  0  0  0  0  0  0  0  0  0
    9.4204    6.7970    0.0000 H   0  0  0  0  0  0  0  0  0  0  0  0
    3.9441   -2.3132    0.0000 H   0  0  0  0  0  0  0  0  0  0  0  0
    4.3426   -1.6229    0.0000 H   0  0  0  0  0  0  0  0  0  0  0  0
    4.2690   -3.4206    0.0000 H   0  0  0  0  0  0  0  0  0  0  0  0
    1.4631   -3.4206    0.0000 H   0  0  0  0  0  0  0  0  0  0  0  0
    4.2690   -5.0406    0.0000 H   0  0  0  0  0  0  0  0  0  0  0  0
    1.4631   -5.0406    0.0000 H   0  0  0  0  0  0  0  0  0  0  0  0
  1 26  1  0  0  0  0 
  2 17  1  0  0  0  0 
  2 19  1  0  0  0  0 
  3 11  1  0  0  0  0 
  3 19  1  0  0  0  0 
  4 20  1  0  0  0  0 
  4 21  1  0  0  0  0 
  5  6  1  0  0  0  0 
  5 11  2  0  0  0  0 
  6 19  2  0  0  0  0 
  7  8  1  0  0  0  0 
  7  9  1  0  0  0  0 
  7 10  1  6  0  0  0 
  7 27  1  0  0  0  0 
  8 11  1  0  0  0  0 
  8 28  1  0  0  0  0 
  8 29  1  0  0  0  0 
  9 12  2  0  0  0  0 
  9 13  1  0  0  0  0 
 10 30  1  0  0  0  0 
 10 31  1  0  0  0  0 
 10 32  1  0  0  0  0 
 12 14  1  0  0  0  0 
 12 33  1  0  0  0  0 
 13 15  2  0  0  0  0 
 13 34  1  0  0  0  0 
 14 18  2  0  0  0  0 
 14 37  1  0  0  0  0 
 15 18  1  0  0  0  0 
 15 38  1  0  0  0  0 
 16 17  1  0  0  0  0 
 16 20  1  0  0  0  0 
 16 35  1  0  0  0  0 
 16 36  1  0  0  0  0 
 17 39  1  0  0  0  0 
 17 40  1  0  0  0  0 
 18 41  1  0  0  0  0 
 20 42  1  0  0  0  0 
 20 43  1  0  0  0  0 
 21 22  2  0  0  0  0 
 21 23  1  0  0  0  0 
 22 24  1  0  0  0  0 
 22 44  1  0  0  0  0 
 23 25  2  0  0  0  0 
 23 45  1  0  0  0  0 
 24 26  2  0  0  0  0 
 24 46  1  0  0  0  0 
 25 26  1  0  0  0  0 
 25 47  1  0  0  0  0 
M  END
> <cdk:Title>
52473889

> <cdk:Remark>
null

> <PUBCHEM_COMPOUND_CID>
52473889

> <PUBCHEM_COMPOUND_CANONICALIZED>
1

> <PUBCHEM_CACTVS_COMPLEXITY>
390

> <PUBCHEM_CACTVS_HBOND_ACCEPTOR>
5

> <PUBCHEM_CACTVS_HBOND_DONOR>
0

> <PUBCHEM_CACTVS_ROTATABLE_BOND>
9

> <PUBCHEM_CACTVS_SUBSKEYS>
AAADceB7MABEAAAAAAAAAAAAAAAAAWAAAAAwYAAAAAAAAAAB0AAAHgYIAAAADQal2iKyBoAABEiqAiFyEAASCABoJRAaiAE2CogMJjKlsxqKOCCkyBEIqAeYyOCOgCAAAAAAAAAAQAAAAAAAAAAAAAAAAA==

> <PUBCHEM_IUPAC_OPENEYE_NAME>
2-[3-(4-chlorophenoxy)propylsulfanyl]-5-[(2R)-2-phenylpropyl]-1,3,4-oxadiazole

> <PUBCHEM_IUPAC_CAS_NAME>
2-[3-(4-chlorophenoxy)propylthio]-5-[(2R)-2-phenylpropyl]-1,3,4-oxadiazole

> <PUBCHEM_IUPAC_NAME>
2-[3-(4-chlorophenoxy)propylsulfanyl]-5-[(2R)-2-phenylpropyl]-1,3,4-oxadiazole

> <PUBCHEM_IUPAC_SYSTEMATIC_NAME>
2-[3-(4-chloranylphenoxy)propylsulfanyl]-5-[(2R)-2-phenylpropyl]-1,3,4-oxadiazole

> <PUBCHEM_IUPAC_TRADITIONAL_NAME>
2-[3-(4-chlorophenoxy)propylthio]-5-[(2R)-2-phenylpropyl]-1,3,4-oxadiazole

> <PUBCHEM_IUPAC_INCHI>
InChI=1S/C20H21ClN2O2S/c1-15(16-6-3-2-4-7-16)14-19-22-23-20(25-19)26-13-5-12-24-18-10-8-17(21)9-11-18/h2-4,6-11,15H,5,12-14H2,1H3/t15-/m1/s1

> <PUBCHEM_IUPAC_INCHIKEY>
PFUPEHHXLANBCW-OAHLLOKOSA-N

> <PUBCHEM_XLOGP3_AA>
5.8

> <PUBCHEM_EXACT_MASS>
388.101227

> <PUBCHEM_MOLECULAR_FORMULA>
C20H21ClN2O2S

> <PUBCHEM_MOLECULAR_WEIGHT>
388.91094

> <PUBCHEM_OPENEYE_CAN_SMILES>
CC(CC1=NN=C(O1)SCCCOC2=CC=C(C=C2)Cl)C3=CC=CC=C3

> <PUBCHEM_OPENEYE_ISO_SMILES>
C[C@H](CC1=NN=C(O1)SCCCOC2=CC=C(C=C2)Cl)C3=CC=CC=C3

> <PUBCHEM_CACTVS_TPSA>
73.4

> <PUBCHEM_MONOISOTOPIC_WEIGHT>
388.101227

> <PUBCHEM_TOTAL_CHARGE>
0

> <PUBCHEM_HEAVY_ATOM_COUNT>
26

> <PUBCHEM_ATOM_DEF_STEREO_COUNT>
1

> <PUBCHEM_ATOM_UDEF_STEREO_COUNT>
0

> <PUBCHEM_BOND_DEF_STEREO_COUNT>
0

> <PUBCHEM_BOND_UDEF_STEREO_COUNT>
0

> <PUBCHEM_ISOTOPIC_ATOM_COUNT>
0

> <PUBCHEM_COMPONENT_COUNT>
1

> <PUBCHEM_CACTVS_TAUTO_COUNT>
1

> <PUBCHEM_COORDINATE_TYPE>
1

> <PUBCHEM_BONDANNOTATIONS>
12  14  8

$$$$
5204467
  CDK     1229141458

 45 47  0  0  0  0  0  0  0  0999 V2000
    6.3301    1.7500    0.0000 Br  0  0  0  0  0  0  0  0  0  0  0  0
    7.1962    4.2500    0.0000 Cl  0  0  0  0  0  0  0  0  0  0  0  0
    4.5981    2.7500    0.0000 O   0  0  0  0  0  0  0  0  0  0  0  0
    2.8660    1.7500    0.0000 O   0  0  0  0  0  0  0  0  0  0  0  0
    2.0000   -2.7500    0.0000 O   0  0  0  0  0  0  0  0  0  0  0  0
    3.7320   -1.7500    0.0000 N   0  0  0  0  0  0  0  0  0  0  0  0
    3.7320   -2.7500    0.0000 N   0  0  0  0  0  0  0  0  0  0  0  0
    3.7320   -4.7500    0.0000 N   0  0  0  0  0  0  0  0  0  0  0  0
    2.0000   -5.7500    0.0000 N   0  0  0  0  0  0  0  0  0  0  0  0
    4.5981    1.7500    0.0000 C   0  0  0  0  0  0  0  0  0  0  0  0
    5.4641    3.2500    0.0000 C   0  0  0  0  0  0  0  0  0  0  0  0
    5.4641    4.2500    0.0000 C   0  0  0  0  0  0  0  0  0  0  0  0
    3.7320    1.2500    0.0000 C   0  0  0  0  0  0  0  0  0  0  0  0
    4.5981   -0.2500    0.0000 C   0  0  0  0  0  0  0  0  0  0  0  0
    5.4641    1.2500    0.0000 C   0  0  0  0  0  0  0  0  0  0  0  0
    3.7320    0.2500    0.0000 C   0  0  0  0  0  0  0  0  0  0  0  0
    5.4641    0.2500    0.0000 C   0  0  0  0  0  0  0  0  0  0  0  0
    6.3301    4.7500    0.0000 C   0  0  0  0  0  0  0  0  0  0  0  0
    4.5981    4.7500    0.0000 C   0  0  0  0  0  0  0  0  0  0  0  0
    6.3301    5.7500    0.0000 C   0  0  0  0  0  0  0  0  0  0  0  0
    4.5981    5.7500    0.0000 C   0  0  0  0  0  0  0  0  0  0  0  0
    4.5981   -1.2500    0.0000 C   0  0  0  0  0  0  0  0  0  0  0  0
    5.4641    6.2500    0.0000 C   0  0  0  0  0  0  0  0  0  0  0  0
    2.0000    1.2500    0.0000 C   0  0  0  0  0  0  0  0  0  0  0  0
    2.8660   -3.2500    0.0000 C   0  0  0  0  0  0  0  0  0  0  0  0
    2.8660   -4.2500    0.0000 C   0  0  0  0  0  0  0  0  0  0  0  0
    2.0000   -4.7500    0.0000 C   0  0  0  0  0  0  0  0  0  0  0  0
    3.7320   -5.7500    0.0000 C   0  0  0  0  0  0  0  0  0  0  0  0
    2.8660   -6.2500    0.0000 C   0  0  0  0  0  0  0  0  0  0  0  0
    5.6762    2.6674    0.0000 H   0  0  0  0  0  0  0  0  0  0  0  0
    6.0747    3.3577    0.0000 H   0  0  0  0  0  0  0  0  0  0  0  0
    3.1951   -0.0600    0.0000 H   0  0  0  0  0  0  0  0  0  0  0  0
    6.0010   -0.0600    0.0000 H   0  0  0  0  0  0  0  0  0  0  0  0
    4.0611    4.4400    0.0000 H   0  0  0  0  0  0  0  0  0  0  0  0
    6.8671    6.0600    0.0000 H   0  0  0  0  0  0  0  0  0  0  0  0
    4.0611    6.0600    0.0000 H   0  0  0  0  0  0  0  0  0  0  0  0
    5.1350   -1.5600    0.0000 H   0  0  0  0  0  0  0  0  0  0  0  0
    5.4641    6.8700    0.0000 H   0  0  0  0  0  0  0  0  0  0  0  0
    1.6900    1.7869    0.0000 H   0  0  0  0  0  0  0  0  0  0  0  0
    1.4631    0.9400    0.0000 H   0  0  0  0  0  0  0  0  0  0  0  0
    2.3100    0.7131    0.0000 H   0  0  0  0  0  0  0  0  0  0  0  0
    4.2690   -3.0600    0.0000 H   0  0  0  0  0  0  0  0  0  0  0  0
    1.4631   -4.4400    0.0000 H   0  0  0  0  0  0  0  0  0  0  0  0
    4.2690   -6.0600    0.0000 H   0  0  0  0  0  0  0  0  0  0  0  0
    2.8660   -6.8700    0.0000 H   0  0  0  0  0  0  0  0  0  0  0  0
  1 15  1  0  0  0  0 
  2 18  1  0  0  0  0 
  3 10  1  0  0  0  0 
  3 11  1  0  0  0  0 
  4 13  1  0  0  0  0 
  4 24  1  0  0  0  0 
  5 25  2  0  0  0  0 
  6  7  1  0  0  0  0 
  6 22  2  3  0  0  0 
  7 25  1  0  0  0  0 
  7 42  1  0  0  0  0 
  8 26  2  0  0  0  0 
  8 28  1  0  0  0  0 
  9 27  2  0  0  0  0 
  9 29  1  0  0  0  0 
 10 13  2  0  0  0  0 
 10 15  1  0  0  0  0 
 11 12  1  0  0  0  0 
 11 30  1  0  0  0  0 
 11 31  1  0  0  0  0 
 12 18  1  0  0  0  0 
 12 19  2  0  0  0  0 
 13 16  1  0  0  0  0 
 14 16  2  0  0  0  0 
 14 17  1  0  0  0  0 
 14 22  1  0  0  0  0 
 15 17  2  0  0  0  0 
 16 32  1  0  0  0  0 
 17 33  1  0  0  0  0 
 18 20  2  0  0  0  0 
 19 21  1  0  0  0  0 
 19 34  1  0  0  0  0 
 20 23  1  0  0  0  0 
 20 35  1  0  0  0  0 
 21 23  2  0  0  0  0 
 21 36  1  0  0  0  0 
 22 37  1  0  0  0  0 
 23 38  1  0  0  0  0 
 24 39  1  0  0  0  0 
 24 40  1  0  0  0  0 
 24 41  1  0  0  0  0 
 25 26  1  0  0  0  0 
 26 27  1  0  0  0  0 
 27 43  1  0  0  0  0 
 28 29  2  0  0  0  0 
 28 44  1  0  0  0  0 
 29 45  1  0  0  0  0 
M  END
> <cdk:Title>
5204467

> <cdk:Remark>
null

> <PUBCHEM_COMPOUND_CID>
5204467

> <PUBCHEM_COMPOUND_CANONICALIZED>
1

> <PUBCHEM_CACTVS_COMPLEXITY>
556

> <PUBCHEM_CACTVS_HBOND_ACCEPTOR>
6

> <PUBCHEM_CACTVS_HBOND_DONOR>
1

> <PUBCHEM_CACTVS_ROTATABLE_BOND>
7

> <PUBCHEM_CACTVS_SUBSKEYS>
AAADceB7sAAEEAAAAAAAAAAAAAAAAAAAAAA8YIAAAAAAAAAB0AAAHgJYAAABrA7hniY+hpJqFACoAzV3VACSiCQ3NyQa2AG+/vgNZurFczqWOKKkyBHKqteAwDAOIAABEIABRABAAAIhAAKIAAAAAAAAAA==

> <PUBCHEM_IUPAC_OPENEYE_NAME>
N-[[3-bromo-4-[(2-chlorophenyl)methoxy]-5-methoxy-phenyl]methyleneamino]pyrazine-2-carboxamide

> <PUBCHEM_IUPAC_CAS_NAME>
N-[[3-bromo-4-[(2-chlorophenyl)methoxy]-5-methoxyphenyl]methylideneamino]-2-pyrazinecarboxamide

> <PUBCHEM_IUPAC_NAME>
N-[[3-bromo-4-[(2-chlorophenyl)methoxy]-5-methoxyphenyl]methylideneamino]pyrazine-2-carboxamide

> <PUBCHEM_IUPAC_SYSTEMATIC_NAME>
N-[[3-bromanyl-4-[(2-chlorophenyl)methoxy]-5-methoxy-phenyl]methylideneamino]pyrazine-2-carboxamide

> <PUBCHEM_IUPAC_TRADITIONAL_NAME>
N-[[3-bromo-4-(2-chlorobenzyl)oxy-5-methoxy-benzylidene]amino]pyrazinamide

> <PUBCHEM_IUPAC_INCHI>
InChI=1S/C20H16BrClN4O3/c1-28-18-9-13(10-25-26-20(27)17-11-23-6-7-24-17)8-15(21)19(18)29-12-14-4-2-3-5-16(14)22/h2-11H,12H2,1H3,(H,26,27)

> <PUBCHEM_IUPAC_INCHIKEY>
UOUGJBPOIVOXEM-UHFFFAOYSA-N

> <PUBCHEM_XLOGP3_AA>
3.8

> <PUBCHEM_EXACT_MASS>
474.00943

> <PUBCHEM_MOLECULAR_FORMULA>
C20H16BrClN4O3

> <PUBCHEM_MOLECULAR_WEIGHT>
475.72304

> <PUBCHEM_OPENEYE_CAN_SMILES>
COC1=C(C(=CC(=C1)C=NNC(=O)C2=NC=CN=C2)Br)OCC3=CC=CC=C3Cl

> <PUBCHEM_OPENEYE_ISO_SMILES>
COC1=C(C(=CC(=C1)C=NNC(=O)C2=NC=CN=C2)Br)OCC3=CC=CC=C3Cl

> <PUBCHEM_CACTVS_TPSA>
85.7

> <PUBCHEM_MONOISOTOPIC_WEIGHT>
474.00943

> <PUBCHEM_TOTAL_CHARGE>
0

> <PUBCHEM_HEAVY_ATOM_COUNT>
29

> <PUBCHEM_ATOM_DEF_STEREO_COUNT>
0

> <PUBCHEM_ATOM_UDEF_STEREO_COUNT>
0

> <PUBCHEM_BOND_DEF_STEREO_COUNT>
0

> <PUBCHEM_BOND_UDEF_STEREO_COUNT>
1

> <PUBCHEM_ISOTOPIC_ATOM_COUNT>
0

> <PUBCHEM_COMPONENT_COUNT>
1

> <PUBCHEM_CACTVS_TAUTO_COUNT>
2

> <PUBCHEM_COORDINATE_TYPE>
1

> <PUBCHEM_BONDANNOTATIONS>
10  13  8

$$$$
