33295171
  CDK     1228141037

 57 59  0  0  0  0  0  0  0  0999 V2000
    7.1382   -3.5086    0.0000 S   0  0  0  0  0  0  0  0  0  0  0  0
    2.8090   -4.0963    0.0000 S   0  0  0  0  0  0  0  0  0  0  0  0
    5.3781   -0.2298    0.0000 O   0  0  0  0  0  0  0  0  0  0  0  0
    7.1102   -0.2298    0.0000 N   0  0  0  0  0  0  0  0  0  0  0  0
    5.3781   -3.2298    0.0000 N   0  0  0  0  0  0  0  0  0  0  0  0
    5.8781   -4.7686    0.0000 N   0  0  0  0  0  0  0  0  0  0  0  0
    4.8781   -4.7686    0.0000 N   0  0  0  0  0  0  0  0  0  0  0  0
    7.1102    2.7702    0.0000 C   0  0  0  0  0  0  0  0  0  0  0  0
    7.1102    3.7702    0.0000 C   0  0  0  0  0  0  0  0  0  0  0  0
    7.9762    2.2702    0.0000 C   0  0  0  0  0  0  0  0  0  0  0  0
    6.2441    2.2702    0.0000 C   0  0  0  0  0  0  0  0  0  0  0  0
    7.1102    0.7702    0.0000 C   0  0  0  0  0  0  0  0  0  0  0  0
    7.9762    1.2702    0.0000 C   0  0  0  0  0  0  0  0  0  0  0  0
    6.2441    1.2702    0.0000 C   0  0  0  0  0  0  0  0  0  0  0  0
    7.1102    4.7702    0.0000 C   0  0  0  0  0  0  0  0  0  0  0  0
    8.1102    3.7702    0.0000 C   0  0  0  0  0  0  0  0  0  0  0  0
    6.1102    3.7702    0.0000 C   0  0  0  0  0  0  0  0  0  0  0  0
    7.9762    5.2702    0.0000 C   0  0  0  0  0  0  0  0  0  0  0  0
    6.2441   -0.7298    0.0000 C   0  0  0  0  0  0  0  0  0  0  0  0
    6.2441   -1.7298    0.0000 C   0  0  0  0  0  0  0  0  0  0  0  0
    5.3781   -2.2298    0.0000 C   0  0  0  0  0  0  0  0  0  0  0  0
    4.5691   -3.8176    0.0000 C   0  0  0  0  0  0  0  0  0  0  0  0
    6.1871   -3.8176    0.0000 C   0  0  0  0  0  0  0  0  0  0  0  0
    3.6180   -3.5086    0.0000 C   0  0  0  0  0  0  0  0  0  0  0  0
    3.3090   -2.5575    0.0000 C   0  0  0  0  0  0  0  0  0  0  0  0
    2.3090   -2.5575    0.0000 C   0  0  0  0  0  0  0  0  0  0  0  0
    2.0000   -3.5086    0.0000 C   0  0  0  0  0  0  0  0  0  0  0  0
    7.6471    3.0802    0.0000 H   0  0  0  0  0  0  0  0  0  0  0  0
    8.5868    2.1626    0.0000 H   0  0  0  0  0  0  0  0  0  0  0  0
    8.1882    2.8528    0.0000 H   0  0  0  0  0  0  0  0  0  0  0  0
    6.0321    2.8528    0.0000 H   0  0  0  0  0  0  0  0  0  0  0  0
    5.6335    2.1626    0.0000 H   0  0  0  0  0  0  0  0  0  0  0  0
    7.6471    0.4602    0.0000 H   0  0  0  0  0  0  0  0  0  0  0  0
    8.1882    0.6876    0.0000 H   0  0  0  0  0  0  0  0  0  0  0  0
    8.5868    1.3779    0.0000 H   0  0  0  0  0  0  0  0  0  0  0  0
    5.6335    1.3779    0.0000 H   0  0  0  0  0  0  0  0  0  0  0  0
    6.0321    0.6876    0.0000 H   0  0  0  0  0  0  0  0  0  0  0  0
    6.8981    5.3528    0.0000 H   0  0  0  0  0  0  0  0  0  0  0  0
    6.4996    4.6626    0.0000 H   0  0  0  0  0  0  0  0  0  0  0  0
    8.1102    3.1502    0.0000 H   0  0  0  0  0  0  0  0  0  0  0  0
    8.7302    3.7702    0.0000 H   0  0  0  0  0  0  0  0  0  0  0  0
    8.1102    4.3902    0.0000 H   0  0  0  0  0  0  0  0  0  0  0  0
    6.1102    4.3902    0.0000 H   0  0  0  0  0  0  0  0  0  0  0  0
    5.4902    3.7702    0.0000 H   0  0  0  0  0  0  0  0  0  0  0  0
    6.1102    3.1502    0.0000 H   0  0  0  0  0  0  0  0  0  0  0  0
    7.6471   -0.5398    0.0000 H   0  0  0  0  0  0  0  0  0  0  0  0
    8.2862    4.7333    0.0000 H   0  0  0  0  0  0  0  0  0  0  0  0
    8.5131    5.5802    0.0000 H   0  0  0  0  0  0  0  0  0  0  0  0
    7.6662    5.8072    0.0000 H   0  0  0  0  0  0  0  0  0  0  0  0
    6.4562   -2.3124    0.0000 H   0  0  0  0  0  0  0  0  0  0  0  0
    6.8547   -1.6221    0.0000 H   0  0  0  0  0  0  0  0  0  0  0  0
    5.1661   -1.6472    0.0000 H   0  0  0  0  0  0  0  0  0  0  0  0
    4.7675   -2.3375    0.0000 H   0  0  0  0  0  0  0  0  0  0  0  0
    6.2425   -5.2702    0.0000 H   0  0  0  0  0  0  0  0  0  0  0  0
    3.6734   -2.0559    0.0000 H   0  0  0  0  0  0  0  0  0  0  0  0
    1.9446   -2.0559    0.0000 H   0  0  0  0  0  0  0  0  0  0  0  0
    1.4103   -3.7001    0.0000 H   0  0  0  0  0  0  0  0  0  0  0  0
  1 23  2  0  0  0  0 
  2 24  1  0  0  0  0 
  2 27  1  0  0  0  0 
  3 19  2  0  0  0  0 
  4 12  1  0  0  0  0 
  4 19  1  0  0  0  0 
  4 46  1  0  0  0  0 
  5 21  1  0  0  0  0 
  5 22  1  0  0  0  0 
  5 23  1  0  0  0  0 
  6  7  1  0  0  0  0 
  6 23  1  0  0  0  0 
  6 54  1  0  0  0  0 
  7 22  2  0  0  0  0 
  8  9  1  0  0  0  0 
  8 10  1  0  0  0  0 
  8 11  1  0  0  0  0 
  8 28  1  0  0  0  0 
  9 15  1  0  0  0  0 
  9 16  1  0  0  0  0 
  9 17  1  0  0  0  0 
 10 13  1  0  0  0  0 
 10 29  1  0  0  0  0 
 10 30  1  0  0  0  0 
 11 14  1  0  0  0  0 
 11 31  1  0  0  0  0 
 11 32  1  0  0  0  0 
 12 13  1  0  0  0  0 
 12 14  1  0  0  0  0 
 12 33  1  0  0  0  0 
 13 34  1  0  0  0  0 
 13 35  1  0  0  0  0 
 14 36  1  0  0  0  0 
 14 37  1  0  0  0  0 
 15 18  1  0  0  0  0 
 15 38  1  0  0  0  0 
 15 39  1  0  0  0  0 
 16 40  1  0  0  0  0 
 16 41  1  0  0  0  0 
 16 42  1  0  0  0  0 
 17 43  1  0  0  0  0 
 17 44  1  0  0  0  0 
 17 45  1  0  0  0  0 
 18 47  1  0  0  0  0 
 18 48  1  0  0  0  0 
 18 49  1  0  0  0  0 
 19 20  1  0  0  0  0 
 20 21  1  0  0  0  0 
 20 50  1  0  0  0  0 
 20 51  1  0  0  0  0 
 21 52  1  0  0  0  0 
 21 53  1  0  0  0  0 
 22 24  1  0  0  0  0 
 24 25  2  0  0  0  0 
 25 26  1  0  0  0  0 
 25 55  1  0  0  0  0 
 26 27  2  0  0  0  0 
 26 56  1  0  0  0  0 
 27 57  1  0  0  0  0 
M  END
> <cdk:Title>
33295171

> <cdk:Remark>
null

> <PUBCHEM_COMPOUND_CID>
33295171

> <PUBCHEM_COMPOUND_CANONICALIZED>
1

> <PUBCHEM_CACTVS_COMPLEXITY>
585

> <PUBCHEM_CACTVS_HBOND_ACCEPTOR>
4

> <PUBCHEM_CACTVS_HBOND_DONOR>
2

> <PUBCHEM_CACTVS_ROTATABLE_BOND>
7

> <PUBCHEM_CACTVS_SUBSKEYS>
AAADceB7oABgAAAAAAAAAAAAAAAAASIAAAAwAAAAAAAAAAABgAAAHgQYAAAADyjF0ASzAYPiAAisACNyMACTAIAgCBlNiJkoBJiIIKqg2RGEAAhgngKoiAcQgMAPgAAAAAAAAAAQAAAAAAAAAAAAAAAAAA==

> <PUBCHEM_IUPAC_OPENEYE_NAME>
N-[4-(1,1-dimethylpropyl)cyclohexyl]-3-[3-(2-thienyl)-5-thioxo-1H-1,2,4-triazol-4-yl]propanamide

> <PUBCHEM_IUPAC_CAS_NAME>
N-[4-(2-methylbutan-2-yl)cyclohexyl]-3-(5-sulfanylidene-3-thiophen-2-yl-1H-1,2,4-triazol-4-yl)propanamide

> <PUBCHEM_IUPAC_NAME>
N-[4-(2-methylbutan-2-yl)cyclohexyl]-3-(5-sulfanylidene-3-thiophen-2-yl-1H-1,2,4-triazol-4-yl)propanamide

> <PUBCHEM_IUPAC_SYSTEMATIC_NAME>
N-[4-(2-methylbutan-2-yl)cyclohexyl]-3-(5-sulfanylidene-3-thiophen-2-yl-1H-1,2,4-triazol-4-yl)propanamide

> <PUBCHEM_IUPAC_TRADITIONAL_NAME>
N-(4-tert-amylcyclohexyl)-3-[3-(2-thienyl)-5-thioxo-1H-1,2,4-triazol-4-yl]propionamide

> <PUBCHEM_IUPAC_INCHI>
InChI=1S/C20H30N4OS2/c1-4-20(2,3)14-7-9-15(10-8-14)21-17(25)11-12-24-18(22-23-19(24)26)16-6-5-13-27-16/h5-6,13-15H,4,7-12H2,1-3H3,(H,21,25)(H,23,26)

> <PUBCHEM_IUPAC_INCHIKEY>
IUGXGEKRWLMNSL-UHFFFAOYSA-N

> <PUBCHEM_XLOGP3_AA>
4.7

> <PUBCHEM_EXACT_MASS>
406.186104

> <PUBCHEM_MOLECULAR_FORMULA>
C20H30N4OS2

> <PUBCHEM_MOLECULAR_WEIGHT>
406.6084

> <PUBCHEM_OPENEYE_CAN_SMILES>
CCC(C)(C)C1CCC(CC1)NC(=O)CCN2C(=NNC2=S)C3=CC=CS3

> <PUBCHEM_OPENEYE_ISO_SMILES>
CCC(C)(C)C1CCC(CC1)NC(=O)CCN2C(=NNC2=S)C3=CC=CS3

> <PUBCHEM_CACTVS_TPSA>
117

> <PUBCHEM_MONOISOTOPIC_WEIGHT>
406.186104

> <PUBCHEM_TOTAL_CHARGE>
0

> <PUBCHEM_HEAVY_ATOM_COUNT>
27

> <PUBCHEM_ATOM_DEF_STEREO_COUNT>
0

> <PUBCHEM_ATOM_UDEF_STEREO_COUNT>
0

> <PUBCHEM_BOND_DEF_STEREO_COUNT>
0

> <PUBCHEM_BOND_UDEF_STEREO_COUNT>
0

> <PUBCHEM_ISOTOPIC_ATOM_COUNT>
0

> <PUBCHEM_COMPONENT_COUNT>
1

> <PUBCHEM_CACTVS_TAUTO_COUNT>
4

> <PUBCHEM_COORDINATE_TYPE>
1

> <PUBCHEM_BONDANNOTATIONS>
2  24  8

$$$$
