
  CDK     1223141415

 30 33  0  0  0  0  0  0  0  0999 V2000
    7.2682   -2.9920    0.0000 N   0  0  0  0  0  0  0  0  0  0  0  0
    7.2682   -1.9920    0.0000 N   0  0  3  0  0  0  0  0  0  0  0  0
    4.1701    4.0469    0.0000 N   0  0  0  0  0  0  0  0  0  0  0  0
    5.5361    0.0080    0.0000 N   0  0  0  0  0  0  0  0  0  0  0  0
    5.5361    1.0080    0.0000 N   0  0  0  0  0  0  0  0  0  0  0  0
    8.1342   -1.4920    0.0000 C   0  0  0  0  0  0  0  0  0  0  0  0
    6.4021   -1.4920    0.0000 C   0  0  0  0  0  0  0  0  0  0  0  0
    3.8611    3.0958    0.0000 C   0  0  0  0  0  0  0  0  0  0  0  0
    7.2682   -3.9920    0.0000 C   0  0  0  0  0  0  0  0  0  0  0  0
    5.1701    4.0469    0.0000 C   0  0  0  0  0  0  0  0  0  0  0  0
    4.6701    2.5080    0.0000 C   0  0  0  0  0  0  0  0  0  0  0  0
    9.0002   -1.9920    0.0000 C   0  0  0  0  0  0  0  0  0  0  0  0
    8.1342   -0.4920    0.0000 C   0  0  0  0  0  0  0  0  0  0  0  0
    5.4791    3.0958    0.0000 C   0  0  0  0  0  0  0  0  0  0  0  0
    9.8663   -1.4920    0.0000 C   0  0  0  0  0  0  0  0  0  0  0  0
    9.0002    0.0080    0.0000 C   0  0  0  0  0  0  0  0  0  0  0  0
    3.5823    4.8559    0.0000 C   0  0  0  0  0  0  0  0  0  0  0  0
    9.8663   -0.4920    0.0000 C   0  0  0  0  0  0  0  0  0  0  0  0
    6.4021   -0.4920    0.0000 C   0  0  0  0  0  0  0  0  0  0  0  0
    6.4021   -4.4920    0.0000 C   0  0  0  0  0  0  0  0  0  0  0  0
    8.1342   -4.4920    0.0000 C   0  0  0  0  0  0  0  0  0  0  0  0
    4.6701    1.5080    0.0000 C   0  0  0  0  0  0  0  0  0  0  0  0
    6.4021   -5.4920    0.0000 C   0  0  0  0  0  0  0  0  0  0  0  0
    8.1342   -5.4920    0.0000 C   0  0  0  0  0  0  0  0  0  0  0  0
    3.9890    5.7694    0.0000 C   0  0  0  0  0  0  0  0  0  0  0  0
    2.5878    4.7514    0.0000 C   0  0  0  0  0  0  0  0  0  0  0  0
    7.2682   -5.9920    0.0000 C   0  0  0  0  0  0  0  0  0  0  0  0
    3.4013    6.5784    0.0000 C   0  0  0  0  0  0  0  0  0  0  0  0
    2.0000    5.5604    0.0000 C   0  0  0  0  0  0  0  0  0  0  0  0
    2.4067    6.4739    0.0000 C   0  0  0  0  0  0  0  0  0  0  0  0
  1  2  1  0  0  0  0 
  1  9  1  0  0  0  0 
  2  6  1  0  0  0  0 
  2  7  1  0  0  0  0 
  3  8  1  0  0  0  0 
  3 10  1  0  0  0  0 
  3 17  1  0  0  0  0 
  4  5  1  0  0  0  0 
  4 19  1  0  0  0  0 
  5 22  1  0  0  0  0 
  6 12  1  0  0  0  0 
  6 13  1  0  0  0  0 
  7 19  1  0  0  0  0 
  8 11  1  0  0  0  0 
  9 20  1  0  0  0  0 
  9 21  1  0  0  0  0 
 10 14  1  0  0  0  0 
 11 14  1  0  0  0  0 
 11 22  1  0  0  0  0 
 12 15  1  0  0  0  0 
 13 16  1  0  0  0  0 
 15 18  1  0  0  0  0 
 16 18  1  0  0  0  0 
 17 25  1  0  0  0  0 
 17 26  1  0  0  0  0 
 20 23  1  0  0  0  0 
 21 24  1  0  0  0  0 
 23 27  1  0  0  0  0 
 24 27  1  0  0  0  0 
 25 28  1  0  0  0  0 
 26 29  1  0  0  0  0 
 28 30  1  0  0  0  0 
 29 30  1  0  0  0  0 
M  ISO  1   1  32
M  END
> <PUBCHEM_COMPOUND_CID>
17725426

$$$$

  CDK     1223141415

 30 33  0  0  0  0  0  0  0  0999 V2000
   11.5263    6.2500    0.0000 N   0  0  0  0  0  0  0  0  0  0  0  0
   11.5263    4.2500    0.0000 N   0  0  0  0  0  0  0  0  0  0  0  0
    9.7942    1.2500    0.0000 N   0  0  0  0  0  0  0  0  0  0  0  0
    8.0622   -1.7500    0.0000 N   0  0  0  0  0  0  0  0  0  0  0  0
    5.4641   -4.2500    0.0000 N   0  0  0  0  0  0  0  0  0  0  0  0
   10.6603    4.7500    0.0000 C   0  0  0  0  0  0  0  0  0  0  0  0
   12.3923    4.7500    0.0000 C   0  0  0  0  0  0  0  0  0  0  0  0
   11.5263    3.2500    0.0000 C   0  0  0  0  0  0  0  0  0  0  0  0
   10.6603    5.7500    0.0000 C   0  0  0  0  0  0  0  0  0  0  0  0
   12.3923    5.7500    0.0000 C   0  0  0  0  0  0  0  0  0  0  0  0
   10.6603    2.7500    0.0000 C   0  0  0  0  0  0  0  0  0  0  0  0
   10.6603    1.7500    0.0000 C   0  0  0  0  0  0  0  0  0  0  0  0
    9.7942    0.2500    0.0000 C   0  0  0  0  0  0  0  0  0  0  0  0
    8.9282   -0.2500    0.0000 C   0  0  0  0  0  0  0  0  0  0  0  0
    7.1962   -1.2500    0.0000 C   0  0  0  0  0  0  0  0  0  0  0  0
    8.9282   -1.2500    0.0000 C   0  0  0  0  0  0  0  0  0  0  0  0
    6.3301   -1.7500    0.0000 C   0  0  0  0  0  0  0  0  0  0  0  0
    8.0622    0.2500    0.0000 C   0  0  0  0  0  0  0  0  0  0  0  0
    7.1962   -0.2500    0.0000 C   0  0  0  0  0  0  0  0  0  0  0  0
    5.4641   -3.2500    0.0000 C   0  0  0  0  0  0  0  0  0  0  0  0
    6.3301   -2.7500    0.0000 C   0  0  0  0  0  0  0  0  0  0  0  0
    5.4641   -1.2500    0.0000 C   0  0  0  0  0  0  0  0  0  0  0  0
    4.5981   -4.7500    0.0000 C   0  0  0  0  0  0  0  0  0  0  0  0
    4.5981   -2.7500    0.0000 C   0  0  0  0  0  0  0  0  0  0  0  0
    4.5981   -1.7500    0.0000 C   0  0  0  0  0  0  0  0  0  0  0  0
    3.7320   -4.2500    0.0000 C   0  0  0  0  0  0  0  0  0  0  0  0
    4.5981   -5.7500    0.0000 C   0  0  0  0  0  0  0  0  0  0  0  0
    2.8660   -5.7500    0.0000 C   0  0  0  0  0  0  0  0  0  0  0  0
    2.8660   -4.7500    0.0000 C   0  0  0  0  0  0  0  0  0  0  0  0
    3.7320   -6.2500    0.0000 C   0  0  0  0  0  0  0  0  0  0  0  0
  1  9  1  0  0  0  0 
  1 10  1  0  0  0  0 
  2  6  1  0  0  0  0 
  2  7  1  0  0  0  0 
  2  8  1  0  0  0  0 
  3 12  1  0  0  0  0 
  3 13  1  0  0  0  0 
  4 15  1  0  0  0  0 
  4 16  1  0  0  0  0 
  5 20  1  0  0  0  0 
  5 23  1  0  0  0  0 
  6  9  1  0  0  0  0 
  7 10  1  0  0  0  0 
  8 11  1  0  0  0  0 
 11 12  1  0  0  0  0 
 13 14  1  0  0  0  0 
 14 16  1  0  0  0  0 
 14 18  1  0  0  0  0 
 15 17  1  0  0  0  0 
 15 19  1  0  0  0  0 
 17 21  1  0  0  0  0 
 17 22  1  0  0  0  0 
 18 19  1  0  0  0  0 
 20 21  1  0  0  0  0 
 20 24  1  0  0  0  0 
 22 25  1  0  0  0  0 
 23 26  1  0  0  0  0 
 23 27  1  0  0  0  0 
 24 25  1  0  0  0  0 
 26 29  1  0  0  0  0 
 27 30  1  0  0  0  0 
 28 29  1  0  0  0  0 
 28 30  1  0  0  0  0 
M  ISO  1   1  16
M  END
> <PUBCHEM_COMPOUND_CID>
11569483

$$$$

  CDK     1223141415

 30 33  0  0  0  0  0  0  0  0999 V2000
    8.7788    2.6809    0.0000 N   0  0  0  0  0  0  0  0  0  0  0  0
    8.2788    3.5470    0.0000 N   0  0  0  0  0  0  0  0  0  0  0  0
    6.3301    0.8445    0.0000 N   0  0  0  0  0  0  0  0  0  0  0  0
    5.4641    0.3445    0.0000 N   0  0  0  0  0  0  0  0  0  0  0  0
    4.5981   -2.1555    0.0000 N   0  0  0  0  0  0  0  0  0  0  0  0
    7.3007    3.3391    0.0000 C   0  0  0  0  0  0  0  0  0  0  0  0
    7.1962    2.3445    0.0000 C   0  0  0  0  0  0  0  0  0  0  0  0
    8.1097    1.9378    0.0000 C   0  0  0  0  0  0  0  0  0  0  0  0
    6.5575    4.0082    0.0000 C   0  0  0  0  0  0  0  0  0  0  0  0
    9.7734    2.5764    0.0000 C   0  0  0  0  0  0  0  0  0  0  0  0
    6.3301    1.8445    0.0000 C   0  0  0  0  0  0  0  0  0  0  0  0
    6.7654    4.9863    0.0000 C   0  0  0  0  0  0  0  0  0  0  0  0
    5.6065    3.6992    0.0000 C   0  0  0  0  0  0  0  0  0  0  0  0
   10.1801    1.6629    0.0000 C   0  0  0  0  0  0  0  0  0  0  0  0
   10.3611    3.3854    0.0000 C   0  0  0  0  0  0  0  0  0  0  0  0
    6.0223    5.6555    0.0000 C   0  0  0  0  0  0  0  0  0  0  0  0
    4.8633    4.3683    0.0000 C   0  0  0  0  0  0  0  0  0  0  0  0
   11.1746    1.5583    0.0000 C   0  0  0  0  0  0  0  0  0  0  0  0
   11.3557    3.2809    0.0000 C   0  0  0  0  0  0  0  0  0  0  0  0
    5.0712    5.3464    0.0000 C   0  0  0  0  0  0  0  0  0  0  0  0
   11.7624    2.3674    0.0000 C   0  0  0  0  0  0  0  0  0  0  0  0
    4.5981   -1.1555    0.0000 C   0  0  0  0  0  0  0  0  0  0  0  0
    5.4641   -0.6555    0.0000 C   0  0  0  0  0  0  0  0  0  0  0  0
    3.7320   -3.6555    0.0000 C   0  0  0  0  0  0  0  0  0  0  0  0
    3.7320   -2.6555    0.0000 C   0  0  0  0  0  0  0  0  0  0  0  0
    2.8660   -4.1555    0.0000 C   0  0  0  0  0  0  0  0  0  0  0  0
    4.5981   -4.1555    0.0000 C   0  0  0  0  0  0  0  0  0  0  0  0
    2.8660   -5.1555    0.0000 C   0  0  0  0  0  0  0  0  0  0  0  0
    4.5981   -5.1555    0.0000 C   0  0  0  0  0  0  0  0  0  0  0  0
    3.7320   -5.6555    0.0000 C   0  0  0  0  0  0  0  0  0  0  0  0
  1  2  1  0  0  0  0 
  1  8  1  0  0  0  0 
  1 10  1  0  0  0  0 
  2  6  1  0  0  0  0 
  3  4  1  0  0  0  0 
  3 11  1  0  0  0  0 
  4 23  1  0  0  0  0 
  5 22  1  0  0  0  0 
  5 25  1  0  0  0  0 
  6  7  1  0  0  0  0 
  6  9  1  0  0  0  0 
  7  8  1  0  0  0  0 
  7 11  1  0  0  0  0 
  9 12  1  0  0  0  0 
  9 13  1  0  0  0  0 
 10 14  1  0  0  0  0 
 10 15  1  0  0  0  0 
 12 16  1  0  0  0  0 
 13 17  1  0  0  0  0 
 14 18  1  0  0  0  0 
 15 19  1  0  0  0  0 
 16 20  1  0  0  0  0 
 17 20  1  0  0  0  0 
 18 21  1  0  0  0  0 
 19 21  1  0  0  0  0 
 22 23  1  0  0  0  0 
 24 25  1  0  0  0  0 
 24 26  1  0  0  0  0 
 24 27  1  0  0  0  0 
 26 28  1  0  0  0  0 
 27 29  1  0  0  0  0 
 28 30  1  0  0  0  0 
 29 30  1  0  0  0  0 
M  END
> <PUBCHEM_COMPOUND_CID>
34299360

$$$$
