
  CDK     0202151410

  8  8  0  0  0  0  0  0  0  0999 V2000
    3.7320    1.6377    0.0000 O   0  0  0  0  0  0  0  0  0  0  0  0
    3.7320   -0.3623    0.0000 C   0  0  3  0  0  0  0  0  0  0  0  0
    2.8660    0.1377    0.0000 C   0  0  0  0  0  0  0  0  0  0  0  0
    2.8660    1.1377    0.0000 C   0  0  3  0  0  0  0  0  0  0  0  0
    4.5981    0.1377    0.0000 C   0  0  0  0  0  0  0  0  0  0  0  0
    4.5981    1.1377    0.0000 C   0  0  0  0  0  0  0  0  0  0  0  0
    5.4920   -0.3970    0.0000 C   0  0  0  0  0  0  0  0  0  0  0  0
    5.4920    1.6723    0.0000 C   0  0  0  0  0  0  0  0  0  0  0  0
  1  4  1  0  0  0  0 
  1  6  1  0  0  0  0 
  2  3  1  0  0  0  0 
  2  5  1  0  0  0  0 
  3  4  1  0  0  0  0 
  5  6  1  0  0  0  0 
  5  7  1  0  0  0  0 
  6  8  1  0  0  0  0 
M  END
> <PUBCHEM_COMPOUND_CID>
43536971

$$$$

  CDK     0202151410

  8  8  0  0  0  0  0  0  0  0999 V2000
    3.7320    1.6377    0.0000 O   0  0  0  0  0  0  0  0  0  0  0  0
    3.7320   -0.3623    0.0000 C   0  0  3  0  0  0  0  0  0  0  0  0
    2.8660    0.1377    0.0000 C   0  0  0  0  0  0  0  0  0  0  0  0
    2.8660    1.1377    0.0000 C   0  0  3  0  0  0  0  0  0  0  0  0
    4.5981    0.1377    0.0000 C   0  0  0  0  0  0  0  0  0  0  0  0
    4.5981    1.1377    0.0000 C   0  0  0  0  0  0  0  0  0  0  0  0
    5.4920   -0.3970    0.0000 C   0  0  0  0  0  0  0  0  0  0  0  0
    5.4920    1.6723    0.0000 C   0  0  0  0  0  0  0  0  0  0  0  0
  1  4  1  0  0  0  0 
  1  6  1  0  0  0  0 
  2  3  1  0  0  0  0 
  2  5  1  0  0  0  0 
  3  4  1  0  0  0  0 
  5  6  1  0  0  0  0 
  5  7  1  0  0  0  0 
  6  8  1  0  0  0  0 
M  END
> <PUBCHEM_COMPOUND_CID>
43536971

$$$$
