
  CDK     0202151413

 19 18  0  0  0  0  0  0  0  0999 V2000
    6.3301    0.0000    0.0000 O   0  0  0  0  0  0  0  0  0  0  0  0
    4.5981    1.0000    0.0000 O   0  0  0  0  0  0  0  0  0  0  0  0
    8.0622    0.0000    0.0000 O   0  0  0  0  0  0  0  0  0  0  0  0
    5.4641    2.5000    0.0000 N   0  0  0  0  0  0  0  0  0  0  0  0
    8.9282   -1.5000    0.0000 N   0  0  0  0  0  0  0  0  0  0  0  0
    3.7321    2.5000    0.0000 C   0  0  0  0  0  0  0  0  0  0  0  0
    4.5981    3.0000    0.0000 C   0  0  1  0  0  0  0  0  0  0  0  0
    4.5981    4.0000    0.0000 C   0  0  0  0  0  0  0  0  0  0  0  0
    3.7321    4.5000    0.0000 C   0  0  0  0  0  0  0  0  0  0  0  0
    5.4641    4.5000    0.0000 C   0  0  0  0  0  0  0  0  0  0  0  0
    5.4641    1.5000    0.0000 C   0  0  0  0  0  0  0  0  0  0  0  0
    8.0622   -2.0000    0.0000 C   0  0  1  0  0  0  0  0  0  0  0  0
    7.1962   -1.5000    0.0000 C   0  0  0  0  0  0  0  0  0  0  0  0
    6.3301    1.0000    0.0000 C   0  0  0  0  0  0  0  0  0  0  0  0
    8.0622   -3.0000    0.0000 C   0  0  0  0  0  0  0  0  0  0  0  0
    7.1962   -0.5000    0.0000 C   0  0  0  0  0  0  0  0  0  0  0  0
    7.1962   -3.5000    0.0000 C   0  0  0  0  0  0  0  0  0  0  0  0
    8.9282   -3.5000    0.0000 C   0  0  0  0  0  0  0  0  0  0  0  0
    9.7942   -2.0000    0.0000 C   0  0  0  0  0  0  0  0  0  0  0  0
  1 14  1  0  0  0  0 
  1 16  1  0  0  0  0 
  2 11  1  0  0  0  0 
  3 16  1  0  0  0  0 
  7  4  1  1  0  0  0 
  4 11  1  0  0  0  0 
 12  5  1  6  0  0  0 
  5 19  1  0  0  0  0 
  6  7  1  0  0  0  0 
  7  8  1  0  0  0  0 
  8  9  1  0  0  0  0 
  8 10  1  0  0  0  0 
 11 14  1  0  0  0  0 
 12 13  1  0  0  0  0 
 12 15  1  0  0  0  0 
 13 16  1  0  0  0  0 
 15 17  1  0  0  0  0 
 15 18  1  0  0  0  0 
M  END
> <PUBCHEM_COMPOUND_CID>
32850434

$$$$

  CDK     0202151413

 18 19  0  0  0  0  0  0  0  0999 V2000
    3.7320   -0.6817    0.0000 S   0  0  0  0  0  0  0  0  0  0  0  0
   10.8600    0.3183    0.0000 O   0  0  0  0  0  0  0  0  0  0  0  0
    7.2764    1.1230    0.0000 N   0  0  0  0  0  0  0  0  0  0  0  0
    7.2764   -0.4864    0.0000 N   0  0  0  0  0  0  0  0  0  0  0  0
   10.8600   -1.4138    0.0000 N   0  0  0  0  0  0  0  0  0  0  0  0
    6.3301    0.8183    0.0000 C   0  0  0  0  0  0  0  0  0  0  0  0
    7.8600    0.3183    0.0000 C   0  0  0  0  0  0  0  0  0  0  0  0
    6.3301   -0.1817    0.0000 C   0  0  0  0  0  0  0  0  0  0  0  0
    8.8600    0.3183    0.0000 C   0  0  0  0  0  0  0  0  0  0  0  0
    7.5870    2.0736    0.0000 C   0  0  0  0  0  0  0  0  0  0  0  0
    4.5981   -0.1817    0.0000 C   0  0  0  0  0  0  0  0  0  0  0  0
    5.4641   -0.6817    0.0000 C   0  0  0  0  0  0  0  0  0  0  0  0
    5.4641    1.3183    0.0000 C   0  0  0  0  0  0  0  0  0  0  0  0
    9.3600   -0.5477    0.0000 C   0  0  0  0  0  0  0  0  0  0  0  0
    4.5981    0.8183    0.0000 C   0  0  0  0  0  0  0  0  0  0  0  0
    8.5655    2.2798    0.0000 C   0  0  0  0  0  0  0  0  0  0  0  0
   10.3600   -0.5477    0.0000 C   0  0  0  0  0  0  0  0  0  0  0  0
   11.8600   -1.4138    0.0000 C   0  0  0  0  0  0  0  0  0  0  0  0
  1 11  1  0  0  0  0 
  2 17  1  0  0  0  0 
  3  6  1  0  0  0  0 
  3  7  1  0  0  0  0 
  3 10  1  0  0  0  0 
  4  7  1  0  0  0  0 
  4  8  1  0  0  0  0 
  5 17  1  0  0  0  0 
  5 18  1  0  0  0  0 
  6  8  1  0  0  0  0 
  6 13  1  0  0  0  0 
  7  9  1  0  0  0  0 
  8 12  1  0  0  0  0 
  9 14  1  0  0  0  0 
 10 16  1  0  0  0  0 
 11 12  1  0  0  0  0 
 11 15  1  0  0  0  0 
 13 15  1  0  0  0  0 
 14 17  1  0  0  0  0 
M  END
> <PUBCHEM_COMPOUND_CID>
41641047

$$$$
