30544573
  CDK     0104150955

 52 54  0  0  0  0  0  0  0  0999 V2000
    2.8660    5.0000    0.0000 F   0  0  0  0  0  0  0  0  0  0  0  0
    8.9282   -3.5000    0.0000 O   0  0  0  0  0  0  0  0  0  0  0  0
    2.8660   -4.0000    0.0000 O   0  0  0  0  0  0  0  0  0  0  0  0
    4.5981   -5.0000    0.0000 O   0  0  0  0  0  0  0  0  0  0  0  0
    2.8660   -1.0000    0.0000 O   0  0  0  0  0  0  0  0  0  0  0  0
    7.1962   -2.5000    0.0000 N   0  0  0  0  0  0  0  0  0  0  0  0
    4.5981   -2.0000    0.0000 N   0  0  0  0  0  0  0  0  0  0  0  0
    3.7320    0.5000    0.0000 N   0  0  0  0  0  0  0  0  0  0  0  0
    6.3301   -2.0000    0.0000 C   0  0  0  0  0  0  0  0  0  0  0  0
    7.1962   -3.5000    0.0000 C   0  0  0  0  0  0  0  0  0  0  0  0
    8.0622   -2.0000    0.0000 C   0  0  0  0  0  0  0  0  0  0  0  0
    5.4641   -2.5000    0.0000 C   0  0  0  0  0  0  0  0  0  0  0  0
    8.9282   -2.5000    0.0000 C   0  0  0  0  0  0  0  0  0  0  0  0
    8.0622   -4.0000    0.0000 C   0  0  0  0  0  0  0  0  0  0  0  0
    4.5981   -1.0000    0.0000 C   0  0  0  0  0  0  0  0  0  0  0  0
    5.4641   -3.5000    0.0000 C   0  0  0  0  0  0  0  0  0  0  0  0
    3.7320   -2.5000    0.0000 C   0  0  0  0  0  0  0  0  0  0  0  0
    4.5981   -4.0000    0.0000 C   0  0  0  0  0  0  0  0  0  0  0  0
    3.7320   -3.5000    0.0000 C   0  0  0  0  0  0  0  0  0  0  0  0
    3.7320   -0.5000    0.0000 C   0  0  0  0  0  0  0  0  0  0  0  0
    2.8660    1.0000    0.0000 C   0  0  0  0  0  0  0  0  0  0  0  0
    2.8660    2.0000    0.0000 C   0  0  0  0  0  0  0  0  0  0  0  0
    2.0000   -3.5000    0.0000 C   0  0  0  0  0  0  0  0  0  0  0  0
    3.7320    2.5000    0.0000 C   0  0  0  0  0  0  0  0  0  0  0  0
    2.0000    2.5000    0.0000 C   0  0  0  0  0  0  0  0  0  0  0  0
    3.7320    3.5000    0.0000 C   0  0  0  0  0  0  0  0  0  0  0  0
    2.0000    3.5000    0.0000 C   0  0  0  0  0  0  0  0  0  0  0  0
    2.8660    4.0000    0.0000 C   0  0  0  0  0  0  0  0  0  0  0  0
    6.7287   -1.5250    0.0000 H   0  0  0  0  0  0  0  0  0  0  0  0
    5.9316   -1.5250    0.0000 H   0  0  0  0  0  0  0  0  0  0  0  0
    6.5856   -3.3923    0.0000 H   0  0  0  0  0  0  0  0  0  0  0  0
    6.9841   -4.0826    0.0000 H   0  0  0  0  0  0  0  0  0  0  0  0
    8.4607   -1.5250    0.0000 H   0  0  0  0  0  0  0  0  0  0  0  0
    7.6636   -1.5250    0.0000 H   0  0  0  0  0  0  0  0  0  0  0  0
    7.6636   -4.4750    0.0000 H   0  0  0  0  0  0  0  0  0  0  0  0
    8.4607   -4.4750    0.0000 H   0  0  0  0  0  0  0  0  0  0  0  0
    9.5388   -2.6077    0.0000 H   0  0  0  0  0  0  0  0  0  0  0  0
    9.1403   -1.9174    0.0000 H   0  0  0  0  0  0  0  0  0  0  0  0
    5.2087   -1.1077    0.0000 H   0  0  0  0  0  0  0  0  0  0  0  0
    4.8101   -0.4174    0.0000 H   0  0  0  0  0  0  0  0  0  0  0  0
    6.0010   -3.8100    0.0000 H   0  0  0  0  0  0  0  0  0  0  0  0
    3.1951   -2.1900    0.0000 H   0  0  0  0  0  0  0  0  0  0  0  0
    4.2690    0.8100    0.0000 H   0  0  0  0  0  0  0  0  0  0  0  0
    2.2554    1.1077    0.0000 H   0  0  0  0  0  0  0  0  0  0  0  0
    2.6540    0.4174    0.0000 H   0  0  0  0  0  0  0  0  0  0  0  0
    2.3100   -2.9631    0.0000 H   0  0  0  0  0  0  0  0  0  0  0  0
    1.4631   -3.1900    0.0000 H   0  0  0  0  0  0  0  0  0  0  0  0
    1.6900   -4.0369    0.0000 H   0  0  0  0  0  0  0  0  0  0  0  0
    4.2690    2.1900    0.0000 H   0  0  0  0  0  0  0  0  0  0  0  0
    1.4631    2.1900    0.0000 H   0  0  0  0  0  0  0  0  0  0  0  0
    4.2690    3.8100    0.0000 H   0  0  0  0  0  0  0  0  0  0  0  0
    1.4631    3.8100    0.0000 H   0  0  0  0  0  0  0  0  0  0  0  0
  1 28  1  0  0  0  0 
  2 13  1  0  0  0  0 
  2 14  1  0  0  0  0 
  3 19  1  0  0  0  0 
  3 23  1  0  0  0  0 
  4 18  2  0  0  0  0 
  5 20  2  0  0  0  0 
  6  9  1  0  0  0  0 
  6 10  1  0  0  0  0 
  6 11  1  0  0  0  0 
  7 12  1  0  0  0  0 
  7 15  1  0  0  0  0 
  7 17  1  0  0  0  0 
  8 20  1  0  0  0  0 
  8 21  1  0  0  0  0 
  8 43  1  0  0  0  0 
  9 12  1  0  0  0  0 
  9 29  1  0  0  0  0 
  9 30  1  0  0  0  0 
 10 14  1  0  0  0  0 
 10 31  1  0  0  0  0 
 10 32  1  0  0  0  0 
 11 13  1  0  0  0  0 
 11 33  1  0  0  0  0 
 11 34  1  0  0  0  0 
 12 16  2  0  0  0  0 
 13 37  1  0  0  0  0 
 13 38  1  0  0  0  0 
 14 35  1  0  0  0  0 
 14 36  1  0  0  0  0 
 15 20  1  0  0  0  0 
 15 39  1  0  0  0  0 
 15 40  1  0  0  0  0 
 16 18  1  0  0  0  0 
 16 41  1  0  0  0  0 
 17 19  2  0  0  0  0 
 17 42  1  0  0  0  0 
 18 19  1  0  0  0  0 
 21 22  1  0  0  0  0 
 21 44  1  0  0  0  0 
 21 45  1  0  0  0  0 
 22 24  2  0  0  0  0 
 22 25  1  0  0  0  0 
 23 46  1  0  0  0  0 
 23 47  1  0  0  0  0 
 23 48  1  0  0  0  0 
 24 26  1  0  0  0  0 
 24 49  1  0  0  0  0 
 25 27  2  0  0  0  0 
 25 50  1  0  0  0  0 
 26 28  2  0  0  0  0 
 26 51  1  0  0  0  0 
 27 28  1  0  0  0  0 
 27 52  1  0  0  0  0 
M  END
> <cdk:Title>
30544573

> <cdk:Remark>
null

> <PUBCHEM_COMPOUND_CID>
30544573

> <PUBCHEM_COMPOUND_CANONICALIZED>
1

> <PUBCHEM_CACTVS_COMPLEXITY>
623

> <PUBCHEM_CACTVS_HBOND_ACCEPTOR>
7

> <PUBCHEM_CACTVS_HBOND_DONOR>
1

> <PUBCHEM_CACTVS_ROTATABLE_BOND>
7

> <PUBCHEM_CACTVS_SUBSKEYS>
AAADceB7OQAAAAAAAAAAAAAAAAAAAAAAAAA8QIAAAAAAAAABAAAAHwAQAAAADAzhmA4yAIPABACIAqVWUAKCCAAgAgAIiIDIBMgKYCKAkTWXIAhg1gCYiccQgAAOAAAAAAAAAAAAAAAAAAAAAAAAAAAAAA==

> <PUBCHEM_IUPAC_OPENEYE_NAME>
N-[(4-fluorophenyl)methyl]-2-[5-methoxy-2-(morpholinomethyl)-4-oxo-1-pyridyl]acetamide

> <PUBCHEM_IUPAC_CAS_NAME>
N-[(4-fluorophenyl)methyl]-2-[5-methoxy-2-(4-morpholinylmethyl)-4-oxo-1-pyridinyl]acetamide

> <PUBCHEM_IUPAC_NAME>
N-[(4-fluorophenyl)methyl]-2-[5-methoxy-2-(morpholin-4-ylmethyl)-4-oxopyridin-1-yl]acetamide

> <PUBCHEM_IUPAC_SYSTEMATIC_NAME>
N-[(4-fluorophenyl)methyl]-2-[5-methoxy-2-(morpholin-4-ylmethyl)-4-oxidanylidene-pyridin-1-yl]ethanamide

> <PUBCHEM_IUPAC_TRADITIONAL_NAME>
N-(4-fluorobenzyl)-2-[4-keto-5-methoxy-2-(morpholinomethyl)-1-pyridyl]acetamide

> <PUBCHEM_IUPAC_INCHI>
InChI=1S/C20H24FN3O4/c1-27-19-13-24(14-20(26)22-11-15-2-4-16(21)5-3-15)17(10-18(19)25)12-23-6-8-28-9-7-23/h2-5,10,13H,6-9,11-12,14H2,1H3,(H,22,26)

> <PUBCHEM_IUPAC_INCHIKEY>
GHALBOMSNGXQSF-UHFFFAOYSA-N

> <PUBCHEM_XLOGP3_AA>
0.9

> <PUBCHEM_EXACT_MASS>
389.175084

> <PUBCHEM_MOLECULAR_FORMULA>
C20H24FN3O4

> <PUBCHEM_MOLECULAR_WEIGHT>
389.420663

> <PUBCHEM_OPENEYE_CAN_SMILES>
COC1=CN(C(=CC1=O)CN2CCOCC2)CC(=O)NCC3=CC=C(C=C3)F

> <PUBCHEM_OPENEYE_ISO_SMILES>
COC1=CN(C(=CC1=O)CN2CCOCC2)CC(=O)NCC3=CC=C(C=C3)F

> <PUBCHEM_CACTVS_TPSA>
71.1

> <PUBCHEM_MONOISOTOPIC_WEIGHT>
389.175084

> <PUBCHEM_TOTAL_CHARGE>
0

> <PUBCHEM_HEAVY_ATOM_COUNT>
28

> <PUBCHEM_ATOM_DEF_STEREO_COUNT>
0

> <PUBCHEM_ATOM_UDEF_STEREO_COUNT>
0

> <PUBCHEM_BOND_DEF_STEREO_COUNT>
0

> <PUBCHEM_BOND_UDEF_STEREO_COUNT>
0

> <PUBCHEM_ISOTOPIC_ATOM_COUNT>
0

> <PUBCHEM_COMPONENT_COUNT>
1

> <PUBCHEM_CACTVS_TAUTO_COUNT>
2

> <PUBCHEM_COORDINATE_TYPE>
1

> <PUBCHEM_BONDANNOTATIONS>
12  16  8

$$$$
8351491
  CDK     0104150955

 47 49  0  0  0  0  0  0  0  0999 V2000
    7.0255   -1.6012    0.0000 S   0  0  0  0  0  0  0  0  0  0  0  0
    5.2460   -1.5079    0.0000 S   0  0  0  0  0  0  0  0  0  0  0  0
   14.0013    1.4921    0.0000 O   0  0  0  0  0  0  0  0  0  0  0  0
   10.4896    0.3988    0.0000 O   0  0  0  0  0  0  0  0  0  0  0  0
    8.7576   -2.6012    0.0000 O   0  0  0  0  0  0  0  0  0  0  0  0
   12.2217    0.3988    0.0000 N   0  0  0  0  0  0  0  0  0  0  0  0
    9.6236   -1.1012    0.0000 N   0  0  0  0  0  0  0  0  0  0  0  0
    3.5823   -0.8693    0.0000 N   0  0  0  0  0  0  0  0  0  0  0  0
    5.0768    0.1012    0.0000 N   0  0  0  0  0  0  0  0  0  0  0  0
    6.0550   -0.1067    0.0000 N   0  0  0  0  0  0  0  0  0  0  0  0
   11.3557   -1.1012    0.0000 C   0  0  0  0  0  0  0  0  0  0  0  0
   10.4896   -1.6012    0.0000 C   0  0  0  0  0  0  0  0  0  0  0  0
   12.2217    1.3988    0.0000 C   0  0  0  0  0  0  0  0  0  0  0  0
   11.3557   -0.1012    0.0000 C   0  0  0  0  0  0  0  0  0  0  0  0
   12.2217   -1.6012    0.0000 C   0  0  0  0  0  0  0  0  0  0  0  0
   10.4896   -2.6012    0.0000 C   0  0  0  0  0  0  0  0  0  0  0  0
   13.0877    1.8988    0.0000 C   0  0  0  0  0  0  0  0  0  0  0  0
   12.2217   -2.6012    0.0000 C   0  0  0  0  0  0  0  0  0  0  0  0
   11.3557   -3.1012    0.0000 C   0  0  0  0  0  0  0  0  0  0  0  0
    8.7576   -1.6012    0.0000 C   0  0  0  0  0  0  0  0  0  0  0  0
   13.1922    2.8933    0.0000 C   0  0  0  0  0  0  0  0  0  0  0  0
    7.8916   -1.1012    0.0000 C   0  0  0  0  0  0  0  0  0  0  0  0
   14.1704    3.1012    0.0000 C   0  0  0  0  0  0  0  0  0  0  0  0
   14.6704    2.2352    0.0000 C   0  0  0  0  0  0  0  0  0  0  0  0
    2.9945   -0.0603    0.0000 C   0  0  0  0  0  0  0  0  0  0  0  0
    4.5768   -0.7648    0.0000 C   0  0  0  0  0  0  0  0  0  0  0  0
    6.1595   -1.1012    0.0000 C   0  0  0  0  0  0  0  0  0  0  0  0
    2.0000   -0.1648    0.0000 C   0  0  0  0  0  0  0  0  0  0  0  0
   12.0096    1.9814    0.0000 H   0  0  0  0  0  0  0  0  0  0  0  0
   11.6111    1.2911    0.0000 H   0  0  0  0  0  0  0  0  0  0  0  0
   12.7586    0.0888    0.0000 H   0  0  0  0  0  0  0  0  0  0  0  0
   12.7586   -1.2912    0.0000 H   0  0  0  0  0  0  0  0  0  0  0  0
    9.9527   -2.9112    0.0000 H   0  0  0  0  0  0  0  0  0  0  0  0
    9.6236   -0.4812    0.0000 H   0  0  0  0  0  0  0  0  0  0  0  0
   12.7586   -2.9112    0.0000 H   0  0  0  0  0  0  0  0  0  0  0  0
   11.3557   -3.7212    0.0000 H   0  0  0  0  0  0  0  0  0  0  0  0
   12.7315    3.3082    0.0000 H   0  0  0  0  0  0  0  0  0  0  0  0
    8.2901   -0.6263    0.0000 H   0  0  0  0  0  0  0  0  0  0  0  0
    7.4930   -0.6263    0.0000 H   0  0  0  0  0  0  0  0  0  0  0  0
   14.4226    3.6676    0.0000 H   0  0  0  0  0  0  0  0  0  0  0  0
    3.5518    0.2115    0.0000 H   0  0  0  0  0  0  0  0  0  0  0  0
    2.8236    0.5357    0.0000 H   0  0  0  0  0  0  0  0  0  0  0  0
   15.2870    2.1704    0.0000 H   0  0  0  0  0  0  0  0  0  0  0  0
    3.3301   -1.4357    0.0000 H   0  0  0  0  0  0  0  0  0  0  0  0
    1.9352    0.4518    0.0000 H   0  0  0  0  0  0  0  0  0  0  0  0
    1.3834   -0.2297    0.0000 H   0  0  0  0  0  0  0  0  0  0  0  0
    2.0648   -0.7815    0.0000 H   0  0  0  0  0  0  0  0  0  0  0  0
  1 22  1  0  0  0  0 
  1 27  1  0  0  0  0 
  2 26  1  0  0  0  0 
  2 27  1  0  0  0  0 
  3 17  1  0  0  0  0 
  3 24  1  0  0  0  0 
  4 14  2  0  0  0  0 
  5 20  2  0  0  0  0 
  6 13  1  0  0  0  0 
  6 14  1  0  0  0  0 
  6 31  1  0  0  0  0 
  7 12  1  0  0  0  0 
  7 20  1  0  0  0  0 
  7 34  1  0  0  0  0 
  8 25  1  0  0  0  0 
  8 26  1  0  0  0  0 
  8 44  1  0  0  0  0 
  9 10  1  0  0  0  0 
  9 26  2  0  0  0  0 
 10 27  2  0  0  0  0 
 11 12  1  0  0  0  0 
 11 14  1  0  0  0  0 
 11 15  2  0  0  0  0 
 12 16  2  0  0  0  0 
 13 17  1  0  0  0  0 
 13 29  1  0  0  0  0 
 13 30  1  0  0  0  0 
 15 18  1  0  0  0  0 
 15 32  1  0  0  0  0 
 16 19  1  0  0  0  0 
 16 33  1  0  0  0  0 
 17 21  2  0  0  0  0 
 18 19  2  0  0  0  0 
 18 35  1  0  0  0  0 
 19 36  1  0  0  0  0 
 20 22  1  0  0  0  0 
 21 23  1  0  0  0  0 
 21 37  1  0  0  0  0 
 22 38  1  0  0  0  0 
 22 39  1  0  0  0  0 
 23 24  2  0  0  0  0 
 23 40  1  0  0  0  0 
 24 43  1  0  0  0  0 
 25 28  1  0  0  0  0 
 25 41  1  0  0  0  0 
 25 42  1  0  0  0  0 
 28 45  1  0  0  0  0 
 28 46  1  0  0  0  0 
 28 47  1  0  0  0  0 
M  END
> <cdk:Title>
8351491

> <cdk:Remark>
null

> <PUBCHEM_COMPOUND_CID>
8351491

> <PUBCHEM_COMPOUND_CANONICALIZED>
1

> <PUBCHEM_CACTVS_COMPLEXITY>
527

> <PUBCHEM_CACTVS_HBOND_ACCEPTOR>
8

> <PUBCHEM_CACTVS_HBOND_DONOR>
3

> <PUBCHEM_CACTVS_ROTATABLE_BOND>
9

> <PUBCHEM_CACTVS_SUBSKEYS>
AAADceB7sABgAAAAAAAAAAAAAAAAAWJAAAAwAAAAAAAAAAAB8AAAHgQYAAAADAzl2Aaz1ILABEiuAq1S8ACSCQJlIhkNiIGObMiOJjrE/buHOaj01hPY6ceYmQKOAAAAAAACAAAAAAAAAAQAAAAAAAAAAA==

> <PUBCHEM_IUPAC_OPENEYE_NAME>
2-[[2-[[5-(ethylamino)-1,3,4-thiadiazol-2-yl]sulfanyl]acetyl]amino]-N-(2-furylmethyl)benzamide

> <PUBCHEM_IUPAC_CAS_NAME>
2-[[2-[[5-(ethylamino)-1,3,4-thiadiazol-2-yl]thio]-1-oxoethyl]amino]-N-(2-furanylmethyl)benzamide

> <PUBCHEM_IUPAC_NAME>
2-[[2-[[5-(ethylamino)-1,3,4-thiadiazol-2-yl]sulfanyl]acetyl]amino]-N-(furan-2-ylmethyl)benzamide

> <PUBCHEM_IUPAC_SYSTEMATIC_NAME>
2-[2-[[5-(ethylamino)-1,3,4-thiadiazol-2-yl]sulfanyl]ethanoylamino]-N-(furan-2-ylmethyl)benzamide

> <PUBCHEM_IUPAC_TRADITIONAL_NAME>
2-[[2-[[5-(ethylamino)-1,3,4-thiadiazol-2-yl]thio]acetyl]amino]-N-(2-furfuryl)benzamide

> <PUBCHEM_IUPAC_INCHI>
InChI=1S/C18H19N5O3S2/c1-2-19-17-22-23-18(28-17)27-11-15(24)21-14-8-4-3-7-13(14)16(25)20-10-12-6-5-9-26-12/h3-9H,2,10-11H2,1H3,(H,19,22)(H,20,25)(H,21,24)

> <PUBCHEM_IUPAC_INCHIKEY>
WXOCFBOTZYRXSF-UHFFFAOYSA-N

> <PUBCHEM_XLOGP3_AA>
3.2

> <PUBCHEM_EXACT_MASS>
417.092931

> <PUBCHEM_MOLECULAR_FORMULA>
C18H19N5O3S2

> <PUBCHEM_MOLECULAR_WEIGHT>
417.50516

> <PUBCHEM_OPENEYE_CAN_SMILES>
CCNC1=NN=C(S1)SCC(=O)NC2=CC=CC=C2C(=O)NCC3=CC=CO3

> <PUBCHEM_OPENEYE_ISO_SMILES>
CCNC1=NN=C(S1)SCC(=O)NC2=CC=CC=C2C(=O)NCC3=CC=CO3

> <PUBCHEM_CACTVS_TPSA>
163

> <PUBCHEM_MONOISOTOPIC_WEIGHT>
417.092931

> <PUBCHEM_TOTAL_CHARGE>
0

> <PUBCHEM_HEAVY_ATOM_COUNT>
28

> <PUBCHEM_ATOM_DEF_STEREO_COUNT>
0

> <PUBCHEM_ATOM_UDEF_STEREO_COUNT>
0

> <PUBCHEM_BOND_DEF_STEREO_COUNT>
0

> <PUBCHEM_BOND_UDEF_STEREO_COUNT>
0

> <PUBCHEM_ISOTOPIC_ATOM_COUNT>
0

> <PUBCHEM_COMPONENT_COUNT>
1

> <PUBCHEM_CACTVS_TAUTO_COUNT>
32

> <PUBCHEM_COORDINATE_TYPE>
1

> <PUBCHEM_BONDANNOTATIONS>
10  27  8

$$$$
