10610116
  CDK     1205141211

 28 28  0  0  0  0  0  0  0  0999 V2000
    4.5981    1.7500    0.0000 O   0  0  0  0  0  0  0  0  0  0  0  0
    2.8660    0.7500    0.0000 O   0  0  0  0  0  0  0  0  0  0  0  0
    7.1962    0.2500    0.0000 O   0  0  0  0  0  0  0  0  0  0  0  0
    6.3301    1.7500    0.0000 O   0  0  0  0  0  0  0  0  0  0  0  0
    2.8660   -2.2500    0.0000 O   0  0  0  0  0  0  0  0  0  0  0  0
    2.0000   -0.7500    0.0000 O   0  0  0  0  0  0  0  0  0  0  0  0
    2.8660   -1.2500    0.0000 N   0  0  0  0  0  0  0  0  0  0  0  0
    4.5981    0.7500    0.0000 C   0  0  0  0  0  0  0  0  0  0  0  0
    5.4641    0.2500    0.0000 C   0  0  0  0  0  0  0  0  0  0  0  0
    3.7320    0.2500    0.0000 C   0  0  0  0  0  0  0  0  0  0  0  0
    3.7320   -0.7500    0.0000 C   0  0  0  0  0  0  0  0  0  0  0  0
    5.4641   -0.7500    0.0000 C   0  0  0  0  0  0  0  0  0  0  0  0
    4.5981   -1.2500    0.0000 C   0  0  0  0  0  0  0  0  0  0  0  0
    6.3301    0.7500    0.0000 C   0  0  0  0  0  0  0  0  0  0  0  0
    3.7320    2.2500    0.0000 C   0  0  0  0  0  0  0  0  0  0  0  0
    2.0000    0.2500    0.0000 C   0  0  0  0  0  0  0  0  0  0  0  0
    8.0622    0.7500    0.0000 C   0  0  0  0  0  0  0  0  0  0  0  0
    6.0010   -1.0600    0.0000 H   0  0  0  0  0  0  0  0  0  0  0  0
    4.5981   -1.8700    0.0000 H   0  0  0  0  0  0  0  0  0  0  0  0
    4.0420    2.7869    0.0000 H   0  0  0  0  0  0  0  0  0  0  0  0
    3.1951    2.5600    0.0000 H   0  0  0  0  0  0  0  0  0  0  0  0
    3.4220    1.7131    0.0000 H   0  0  0  0  0  0  0  0  0  0  0  0
    1.6900    0.7869    0.0000 H   0  0  0  0  0  0  0  0  0  0  0  0
    1.4631   -0.0600    0.0000 H   0  0  0  0  0  0  0  0  0  0  0  0
    2.3100   -0.2869    0.0000 H   0  0  0  0  0  0  0  0  0  0  0  0
    8.3722    0.2131    0.0000 H   0  0  0  0  0  0  0  0  0  0  0  0
    8.5991    1.0600    0.0000 H   0  0  0  0  0  0  0  0  0  0  0  0
    7.7522    1.2869    0.0000 H   0  0  0  0  0  0  0  0  0  0  0  0
  1  8  1  0  0  0  0 
  1 15  1  0  0  0  0 
  2 10  1  0  0  0  0 
  2 16  1  0  0  0  0 
  3 14  1  0  0  0  0 
  3 17  1  0  0  0  0 
  4 14  2  0  0  0  0 
  5  7  1  0  0  0  0 
  6  7  2  0  0  0  0 
  7 11  1  0  0  0  0 
  8  9  2  0  0  0  0 
  8 10  1  0  0  0  0 
  9 12  1  0  0  0  0 
  9 14  1  0  0  0  0 
 10 11  2  0  0  0  0 
 11 13  1  0  0  0  0 
 12 13  2  0  0  0  0 
 12 18  1  0  0  0  0 
 13 19  1  0  0  0  0 
 15 20  1  0  0  0  0 
 15 21  1  0  0  0  0 
 15 22  1  0  0  0  0 
 16 23  1  0  0  0  0 
 16 24  1  0  0  0  0 
 16 25  1  0  0  0  0 
 17 26  1  0  0  0  0 
 17 27  1  0  0  0  0 
 17 28  1  0  0  0  0 
M  CHG  1   5  -1
M  CHG  1   7   1
M  END
> <cdk:Title>
10610116

> <cdk:Remark>
null

> <PUBCHEM_COMPOUND_CID>
10610116

> <PUBCHEM_COMPOUND_CANONICALIZED>
1

> <PUBCHEM_CACTVS_COMPLEXITY>
289

> <PUBCHEM_CACTVS_HBOND_ACCEPTOR>
6

> <PUBCHEM_CACTVS_HBOND_DONOR>
0

> <PUBCHEM_CACTVS_ROTATABLE_BOND>
4

> <PUBCHEM_CACTVS_SUBSKEYS>
AAADccByOAAAAAAAAAAAAAAAAAAAAAAAAAAwAAAAAAAAAAABAAAAHgAEAAAADAyBmAIyzoAQRACJAiTSSwCCCAAkIgAoiAEF7MoPJzaEtJuBMWJn4FkK6Yfa2TGeCAABAgAIUAAQAAIEABCgAAAAAAAAAA==

> <PUBCHEM_IUPAC_OPENEYE_NAME>
methyl 2,3-dimethoxy-4-nitro-benzoate

> <PUBCHEM_IUPAC_CAS_NAME>
2,3-dimethoxy-4-nitrobenzoic acid methyl ester

> <PUBCHEM_IUPAC_NAME>
methyl 2,3-dimethoxy-4-nitrobenzoate

> <PUBCHEM_IUPAC_SYSTEMATIC_NAME>
methyl 2,3-dimethoxy-4-nitro-benzoate

> <PUBCHEM_IUPAC_TRADITIONAL_NAME>
2,3-dimethoxy-4-nitro-benzoic acid methyl ester

> <PUBCHEM_IUPAC_INCHI>
InChI=1S/C10H11NO6/c1-15-8-6(10(12)17-3)4-5-7(11(13)14)9(8)16-2/h4-5H,1-3H3

> <PUBCHEM_IUPAC_INCHIKEY>
OYZFJTWCAVISMW-UHFFFAOYSA-N

> <PUBCHEM_XLOGP3_AA>
1.5

> <PUBCHEM_EXACT_MASS>
241.058637

> <PUBCHEM_MOLECULAR_FORMULA>
C10H11NO6

> <PUBCHEM_MOLECULAR_WEIGHT>
241.19744

> <PUBCHEM_OPENEYE_CAN_SMILES>
COC1=C(C=CC(=C1OC)[N+](=O)[O-])C(=O)OC

> <PUBCHEM_OPENEYE_ISO_SMILES>
COC1=C(C=CC(=C1OC)[N+](=O)[O-])C(=O)OC

> <PUBCHEM_CACTVS_TPSA>
90.6

> <PUBCHEM_MONOISOTOPIC_WEIGHT>
241.058637

> <PUBCHEM_TOTAL_CHARGE>
0

> <PUBCHEM_HEAVY_ATOM_COUNT>
17

> <PUBCHEM_ATOM_DEF_STEREO_COUNT>
0

> <PUBCHEM_ATOM_UDEF_STEREO_COUNT>
0

> <PUBCHEM_BOND_DEF_STEREO_COUNT>
0

> <PUBCHEM_BOND_UDEF_STEREO_COUNT>
0

> <PUBCHEM_ISOTOPIC_ATOM_COUNT>
0

> <PUBCHEM_COMPONENT_COUNT>
1

> <PUBCHEM_CACTVS_TAUTO_COUNT>
1

> <PUBCHEM_COORDINATE_TYPE>
1

> <PUBCHEM_BONDANNOTATIONS>
10  11  8

$$$$
10610116
  CDK     1205141211

 28 28  0  0  0  0  0  0  0  0999 V2000
    4.5981    1.7500    0.0000 O   0  0  0  0  0  0  0  0  0  0  0  0
    2.8660    0.7500    0.0000 O   0  0  0  0  0  0  0  0  0  0  0  0
    7.1962    0.2500    0.0000 O   0  0  0  0  0  0  0  0  0  0  0  0
    6.3301    1.7500    0.0000 O   0  0  0  0  0  0  0  0  0  0  0  0
    2.8660   -2.2500    0.0000 O   0  0  0  0  0  0  0  0  0  0  0  0
    2.0000   -0.7500    0.0000 O   0  0  0  0  0  0  0  0  0  0  0  0
    2.8660   -1.2500    0.0000 N   0  0  0  0  0  0  0  0  0  0  0  0
    4.5981    0.7500    0.0000 C   0  0  0  0  0  0  0  0  0  0  0  0
    5.4641    0.2500    0.0000 C   0  0  0  0  0  0  0  0  0  0  0  0
    3.7320    0.2500    0.0000 C   0  0  0  0  0  0  0  0  0  0  0  0
    3.7320   -0.7500    0.0000 C   0  0  0  0  0  0  0  0  0  0  0  0
    5.4641   -0.7500    0.0000 C   0  0  0  0  0  0  0  0  0  0  0  0
    4.5981   -1.2500    0.0000 C   0  0  0  0  0  0  0  0  0  0  0  0
    6.3301    0.7500    0.0000 C   0  0  0  0  0  0  0  0  0  0  0  0
    3.7320    2.2500    0.0000 C   0  0  0  0  0  0  0  0  0  0  0  0
    2.0000    0.2500    0.0000 C   0  0  0  0  0  0  0  0  0  0  0  0
    8.0622    0.7500    0.0000 C   0  0  0  0  0  0  0  0  0  0  0  0
    6.0010   -1.0600    0.0000 H   0  0  0  0  0  0  0  0  0  0  0  0
    4.5981   -1.8700    0.0000 H   0  0  0  0  0  0  0  0  0  0  0  0
    4.0420    2.7869    0.0000 H   0  0  0  0  0  0  0  0  0  0  0  0
    3.1951    2.5600    0.0000 H   0  0  0  0  0  0  0  0  0  0  0  0
    3.4220    1.7131    0.0000 H   0  0  0  0  0  0  0  0  0  0  0  0
    1.6900    0.7869    0.0000 H   0  0  0  0  0  0  0  0  0  0  0  0
    1.4631   -0.0600    0.0000 H   0  0  0  0  0  0  0  0  0  0  0  0
    2.3100   -0.2869    0.0000 H   0  0  0  0  0  0  0  0  0  0  0  0
    8.3722    0.2131    0.0000 H   0  0  0  0  0  0  0  0  0  0  0  0
    8.5991    1.0600    0.0000 H   0  0  0  0  0  0  0  0  0  0  0  0
    7.7522    1.2869    0.0000 H   0  0  0  0  0  0  0  0  0  0  0  0
  1  8  1  0  0  0  0 
  1 15  1  0  0  0  0 
  2 10  1  0  0  0  0 
  2 16  1  0  0  0  0 
  3 14  1  0  0  0  0 
  3 17  1  0  0  0  0 
  4 14  2  0  0  0  0 
  5  7  1  0  0  0  0 
  6  7  2  0  0  0  0 
  7 11  1  0  0  0  0 
  8  9  2  0  0  0  0 
  8 10  1  0  0  0  0 
  9 12  1  0  0  0  0 
  9 14  1  0  0  0  0 
 10 11  2  0  0  0  0 
 11 13  1  0  0  0  0 
 12 13  2  0  0  0  0 
 12 18  1  0  0  0  0 
 13 19  1  0  0  0  0 
 15 20  1  0  0  0  0 
 15 21  1  0  0  0  0 
 15 22  1  0  0  0  0 
 16 23  1  0  0  0  0 
 16 24  1  0  0  0  0 
 16 25  1  0  0  0  0 
 17 26  1  0  0  0  0 
 17 27  1  0  0  0  0 
 17 28  1  0  0  0  0 
M  CHG  1   5  -1
M  CHG  1   7   1
M  END
> <cdk:Title>
10610116

> <cdk:Remark>
null

> <PUBCHEM_COMPOUND_CID>
10610116

> <PUBCHEM_COMPOUND_CANONICALIZED>
1

> <PUBCHEM_CACTVS_COMPLEXITY>
289

> <PUBCHEM_CACTVS_HBOND_ACCEPTOR>
6

> <PUBCHEM_CACTVS_HBOND_DONOR>
0

> <PUBCHEM_CACTVS_ROTATABLE_BOND>
4

> <PUBCHEM_CACTVS_SUBSKEYS>
AAADccByOAAAAAAAAAAAAAAAAAAAAAAAAAAwAAAAAAAAAAABAAAAHgAEAAAADAyBmAIyzoAQRACJAiTSSwCCCAAkIgAoiAEF7MoPJzaEtJuBMWJn4FkK6Yfa2TGeCAABAgAIUAAQAAIEABCgAAAAAAAAAA==

> <PUBCHEM_IUPAC_OPENEYE_NAME>
methyl 2,3-dimethoxy-4-nitro-benzoate

> <PUBCHEM_IUPAC_CAS_NAME>
2,3-dimethoxy-4-nitrobenzoic acid methyl ester

> <PUBCHEM_IUPAC_NAME>
methyl 2,3-dimethoxy-4-nitrobenzoate

> <PUBCHEM_IUPAC_SYSTEMATIC_NAME>
methyl 2,3-dimethoxy-4-nitro-benzoate

> <PUBCHEM_IUPAC_TRADITIONAL_NAME>
2,3-dimethoxy-4-nitro-benzoic acid methyl ester

> <PUBCHEM_IUPAC_INCHI>
InChI=1S/C10H11NO6/c1-15-8-6(10(12)17-3)4-5-7(11(13)14)9(8)16-2/h4-5H,1-3H3

> <PUBCHEM_IUPAC_INCHIKEY>
OYZFJTWCAVISMW-UHFFFAOYSA-N

> <PUBCHEM_XLOGP3_AA>
1.5

> <PUBCHEM_EXACT_MASS>
241.058637

> <PUBCHEM_MOLECULAR_FORMULA>
C10H11NO6

> <PUBCHEM_MOLECULAR_WEIGHT>
241.19744

> <PUBCHEM_OPENEYE_CAN_SMILES>
COC1=C(C=CC(=C1OC)[N+](=O)[O-])C(=O)OC

> <PUBCHEM_OPENEYE_ISO_SMILES>
COC1=C(C=CC(=C1OC)[N+](=O)[O-])C(=O)OC

> <PUBCHEM_CACTVS_TPSA>
90.6

> <PUBCHEM_MONOISOTOPIC_WEIGHT>
241.058637

> <PUBCHEM_TOTAL_CHARGE>
0

> <PUBCHEM_HEAVY_ATOM_COUNT>
17

> <PUBCHEM_ATOM_DEF_STEREO_COUNT>
0

> <PUBCHEM_ATOM_UDEF_STEREO_COUNT>
0

> <PUBCHEM_BOND_DEF_STEREO_COUNT>
0

> <PUBCHEM_BOND_UDEF_STEREO_COUNT>
0

> <PUBCHEM_ISOTOPIC_ATOM_COUNT>
0

> <PUBCHEM_COMPONENT_COUNT>
1

> <PUBCHEM_CACTVS_TAUTO_COUNT>
1

> <PUBCHEM_COORDINATE_TYPE>
1

> <PUBCHEM_BONDANNOTATIONS>
10  11  8

$$$$
