16548540
  CDK     1205141210

 48 50  0  0  0  0  0  0  0  0999 V2000
    4.2788    1.8130    0.0000 O   0  0  0  0  0  0  0  0  0  0  0  0
    6.3479   -1.0348    0.0000 O   0  0  0  0  0  0  0  0  0  0  0  0
    8.0704    1.3218    0.0000 O   0  0  0  0  0  0  0  0  0  0  0  0
    7.3659   -0.2605    0.0000 O   0  0  0  0  0  0  0  0  0  0  0  0
   11.8291   -1.2997    0.0000 O   0  0  0  0  0  0  0  0  0  0  0  0
    4.5878   -0.7560    0.0000 N   0  0  0  0  0  0  0  0  0  0  0  0
    5.5388    0.5530    0.0000 N   0  0  0  0  0  0  0  0  0  0  0  0
    4.0000    0.0530    0.0000 C   0  0  3  0  0  0  0  0  0  0  0  0
    3.5000   -0.8130    0.0000 C   0  0  3  0  0  0  0  0  0  0  0  0
    3.5000    0.9190    0.0000 C   0  0  0  0  0  0  0  0  0  0  0  0
    2.5000   -0.8130    0.0000 C   0  0  0  0  0  0  0  0  0  0  0  0
    2.5000    0.9190    0.0000 C   0  0  0  0  0  0  0  0  0  0  0  0
    2.0000    0.0530    0.0000 C   0  0  0  0  0  0  0  0  0  0  0  0
    4.5878    0.8620    0.0000 C   0  0  0  0  0  0  0  0  0  0  0  0
    3.5000   -1.8130    0.0000 C   0  0  0  0  0  0  0  0  0  0  0  0
    5.5388   -0.4470    0.0000 C   0  0  0  0  0  0  0  0  0  0  0  0
    6.3479    1.1408    0.0000 C   0  0  0  0  0  0  0  0  0  0  0  0
    7.2614    0.7340    0.0000 C   0  0  0  0  0  0  0  0  0  0  0  0
    8.9840    0.9151    0.0000 C   0  0  0  0  0  0  0  0  0  0  0  0
    9.0885   -0.0794    0.0000 C   0  0  0  0  0  0  0  0  0  0  0  0
    9.7930    1.5029    0.0000 C   0  0  0  0  0  0  0  0  0  0  0  0
   10.0020   -0.4862    0.0000 C   0  0  0  0  0  0  0  0  0  0  0  0
   10.7065    1.0961    0.0000 C   0  0  0  0  0  0  0  0  0  0  0  0
   10.8111    0.1016    0.0000 C   0  0  0  0  0  0  0  0  0  0  0  0
   11.7246   -0.3051    0.0000 C   0  0  0  0  0  0  0  0  0  0  0  0
   12.5336    0.2826    0.0000 C   0  0  0  0  0  0  0  0  0  0  0  0
    4.0989   -0.9735    0.0000 H   0  0  0  0  0  0  0  0  0  0  0  0
    4.0826    1.1311    0.0000 H   0  0  0  0  0  0  0  0  0  0  0  0
    3.3923    1.5296    0.0000 H   0  0  0  0  0  0  0  0  0  0  0  0
    1.9174   -1.0251    0.0000 H   0  0  0  0  0  0  0  0  0  0  0  0
    2.6077   -1.4236    0.0000 H   0  0  0  0  0  0  0  0  0  0  0  0
    2.6077    1.5296    0.0000 H   0  0  0  0  0  0  0  0  0  0  0  0
    1.9174    1.1311    0.0000 H   0  0  0  0  0  0  0  0  0  0  0  0
    1.5250    0.4515    0.0000 H   0  0  0  0  0  0  0  0  0  0  0  0
    1.5250   -0.3456    0.0000 H   0  0  0  0  0  0  0  0  0  0  0  0
    4.7168   -1.3625    0.0000 H   0  0  0  0  0  0  0  0  0  0  0  0
    2.8800   -1.8130    0.0000 H   0  0  0  0  0  0  0  0  0  0  0  0
    3.5000   -2.4330    0.0000 H   0  0  0  0  0  0  0  0  0  0  0  0
    4.1200   -1.8130    0.0000 H   0  0  0  0  0  0  0  0  0  0  0  0
    6.6946    1.6548    0.0000 H   0  0  0  0  0  0  0  0  0  0  0  0
    5.9019    1.5714    0.0000 H   0  0  0  0  0  0  0  0  0  0  0  0
    8.5869   -0.4439    0.0000 H   0  0  0  0  0  0  0  0  0  0  0  0
    9.7282    2.1195    0.0000 H   0  0  0  0  0  0  0  0  0  0  0  0
   10.0668   -1.1028    0.0000 H   0  0  0  0  0  0  0  0  0  0  0  0
   11.2081    1.4606    0.0000 H   0  0  0  0  0  0  0  0  0  0  0  0
   12.8980   -0.2189    0.0000 H   0  0  0  0  0  0  0  0  0  0  0  0
   13.0352    0.6471    0.0000 H   0  0  0  0  0  0  0  0  0  0  0  0
   12.1692    0.7842    0.0000 H   0  0  0  0  0  0  0  0  0  0  0  0
  1 14  2  0  0  0  0 
  2 16  2  0  0  0  0 
  3 18  1  0  0  0  0 
  3 19  1  0  0  0  0 
  4 18  2  0  0  0  0 
  5 25  2  0  0  0  0 
  6  8  1  0  0  0  0 
  6 16  1  0  0  0  0 
  6 36  1  0  0  0  0 
  7 14  1  0  0  0  0 
  7 16  1  0  0  0  0 
  7 17  1  0  0  0  0 
  8  9  1  0  0  0  0 
  8 10  1  0  0  0  0 
  8 14  1  0  0  0  0 
  9 11  1  0  0  0  0 
  9 15  1  0  0  0  0 
  9 27  1  0  0  0  0 
 10 12  1  0  0  0  0 
 10 28  1  0  0  0  0 
 10 29  1  0  0  0  0 
 11 13  1  0  0  0  0 
 11 30  1  0  0  0  0 
 11 31  1  0  0  0  0 
 12 13  1  0  0  0  0 
 12 32  1  0  0  0  0 
 12 33  1  0  0  0  0 
 13 34  1  0  0  0  0 
 13 35  1  0  0  0  0 
 15 37  1  0  0  0  0 
 15 38  1  0  0  0  0 
 15 39  1  0  0  0  0 
 17 18  1  0  0  0  0 
 17 40  1  0  0  0  0 
 17 41  1  0  0  0  0 
 19 20  2  0  0  0  0 
 19 21  1  0  0  0  0 
 20 22  1  0  0  0  0 
 20 42  1  0  0  0  0 
 21 23  2  0  0  0  0 
 21 43  1  0  0  0  0 
 22 24  2  0  0  0  0 
 22 44  1  0  0  0  0 
 23 24  1  0  0  0  0 
 23 45  1  0  0  0  0 
 24 25  1  0  0  0  0 
 25 26  1  0  0  0  0 
 26 46  1  0  0  0  0 
 26 47  1  0  0  0  0 
 26 48  1  0  0  0  0 
M  END
> <cdk:Title>
16548540

> <cdk:Remark>
null

> <PUBCHEM_COMPOUND_CID>
16548540

> <PUBCHEM_COMPOUND_CANONICALIZED>
1

> <PUBCHEM_CACTVS_COMPLEXITY>
611

> <PUBCHEM_CACTVS_HBOND_ACCEPTOR>
5

> <PUBCHEM_CACTVS_HBOND_DONOR>
1

> <PUBCHEM_CACTVS_ROTATABLE_BOND>
5

> <PUBCHEM_CACTVS_SUBSKEYS>
AAADceB7OAAAAAAAAAAAAAAAAAAAAWAAAAAwYAAAAAAAAAABAAAAHgAQAAAADYzBmAQzDoPABACIAqHSGAACCAAkIAAIiAGOCMiOZjKEtTqXOyCs1zOYqYeYzIDOoAAAAAAAAABAAAAAACQAAAAAAAAAAA==

> <PUBCHEM_IUPAC_OPENEYE_NAME>
(4-acetylphenyl) 2-(6-methyl-2,4-dioxo-1,3-diazaspiro[4.5]decan-3-yl)acetate

> <PUBCHEM_IUPAC_CAS_NAME>
2-(6-methyl-2,4-dioxo-1,3-diazaspiro[4.5]decan-3-yl)acetic acid (4-acetylphenyl) ester

> <PUBCHEM_IUPAC_NAME>
(4-acetylphenyl) 2-(6-methyl-2,4-dioxo-1,3-diazaspiro[4.5]decan-3-yl)acetate

> <PUBCHEM_IUPAC_SYSTEMATIC_NAME>
(4-ethanoylphenyl) 2-[6-methyl-2,4-bis(oxidanylidene)-1,3-diazaspiro[4.5]decan-3-yl]ethanoate

> <PUBCHEM_IUPAC_TRADITIONAL_NAME>
2-(2,4-diketo-6-methyl-1,3-diazaspiro[4.5]decan-3-yl)acetic acid (4-acetylphenyl) ester

> <PUBCHEM_IUPAC_INCHI>
InChI=1S/C19H22N2O5/c1-12-5-3-4-10-19(12)17(24)21(18(25)20-19)11-16(23)26-15-8-6-14(7-9-15)13(2)22/h6-9,12H,3-5,10-11H2,1-2H3,(H,20,25)

> <PUBCHEM_IUPAC_INCHIKEY>
ODDBBLMFPKBPSK-UHFFFAOYSA-N

> <PUBCHEM_XLOGP3_AA>
2.3

> <PUBCHEM_EXACT_MASS>
358.152872

> <PUBCHEM_MOLECULAR_FORMULA>
C19H22N2O5

> <PUBCHEM_MOLECULAR_WEIGHT>
358.38838

> <PUBCHEM_OPENEYE_CAN_SMILES>
CC1CCCCC12C(=O)N(C(=O)N2)CC(=O)OC3=CC=C(C=C3)C(=O)C

> <PUBCHEM_OPENEYE_ISO_SMILES>
CC1CCCCC12C(=O)N(C(=O)N2)CC(=O)OC3=CC=C(C=C3)C(=O)C

> <PUBCHEM_CACTVS_TPSA>
92.8

> <PUBCHEM_MONOISOTOPIC_WEIGHT>
358.152872

> <PUBCHEM_TOTAL_CHARGE>
0

> <PUBCHEM_HEAVY_ATOM_COUNT>
26

> <PUBCHEM_ATOM_DEF_STEREO_COUNT>
0

> <PUBCHEM_ATOM_UDEF_STEREO_COUNT>
2

> <PUBCHEM_BOND_DEF_STEREO_COUNT>
0

> <PUBCHEM_BOND_UDEF_STEREO_COUNT>
0

> <PUBCHEM_ISOTOPIC_ATOM_COUNT>
0

> <PUBCHEM_COMPONENT_COUNT>
1

> <PUBCHEM_CACTVS_TAUTO_COUNT>
4

> <PUBCHEM_COORDINATE_TYPE>
1

> <PUBCHEM_BONDANNOTATIONS>
19  20  8

$$$$
16548540
  CDK     1205141211

 48 50  0  0  0  0  0  0  0  0999 V2000
    4.2788    1.8130    0.0000 O   0  0  0  0  0  0  0  0  0  0  0  0
    6.3479   -1.0348    0.0000 O   0  0  0  0  0  0  0  0  0  0  0  0
    8.0704    1.3218    0.0000 O   0  0  0  0  0  0  0  0  0  0  0  0
    7.3659   -0.2605    0.0000 O   0  0  0  0  0  0  0  0  0  0  0  0
   11.8291   -1.2997    0.0000 O   0  0  0  0  0  0  0  0  0  0  0  0
    4.5878   -0.7560    0.0000 N   0  0  0  0  0  0  0  0  0  0  0  0
    5.5388    0.5530    0.0000 N   0  0  0  0  0  0  0  0  0  0  0  0
    4.0000    0.0530    0.0000 C   0  0  3  0  0  0  0  0  0  0  0  0
    3.5000   -0.8130    0.0000 C   0  0  3  0  0  0  0  0  0  0  0  0
    3.5000    0.9190    0.0000 C   0  0  0  0  0  0  0  0  0  0  0  0
    2.5000   -0.8130    0.0000 C   0  0  0  0  0  0  0  0  0  0  0  0
    2.5000    0.9190    0.0000 C   0  0  0  0  0  0  0  0  0  0  0  0
    2.0000    0.0530    0.0000 C   0  0  0  0  0  0  0  0  0  0  0  0
    4.5878    0.8620    0.0000 C   0  0  0  0  0  0  0  0  0  0  0  0
    3.5000   -1.8130    0.0000 C   0  0  0  0  0  0  0  0  0  0  0  0
    5.5388   -0.4470    0.0000 C   0  0  0  0  0  0  0  0  0  0  0  0
    6.3479    1.1408    0.0000 C   0  0  0  0  0  0  0  0  0  0  0  0
    7.2614    0.7340    0.0000 C   0  0  0  0  0  0  0  0  0  0  0  0
    8.9840    0.9151    0.0000 C   0  0  0  0  0  0  0  0  0  0  0  0
    9.0885   -0.0794    0.0000 C   0  0  0  0  0  0  0  0  0  0  0  0
    9.7930    1.5029    0.0000 C   0  0  0  0  0  0  0  0  0  0  0  0
   10.0020   -0.4862    0.0000 C   0  0  0  0  0  0  0  0  0  0  0  0
   10.7065    1.0961    0.0000 C   0  0  0  0  0  0  0  0  0  0  0  0
   10.8111    0.1016    0.0000 C   0  0  0  0  0  0  0  0  0  0  0  0
   11.7246   -0.3051    0.0000 C   0  0  0  0  0  0  0  0  0  0  0  0
   12.5336    0.2826    0.0000 C   0  0  0  0  0  0  0  0  0  0  0  0
    4.0989   -0.9735    0.0000 H   0  0  0  0  0  0  0  0  0  0  0  0
    4.0826    1.1311    0.0000 H   0  0  0  0  0  0  0  0  0  0  0  0
    3.3923    1.5296    0.0000 H   0  0  0  0  0  0  0  0  0  0  0  0
    1.9174   -1.0251    0.0000 H   0  0  0  0  0  0  0  0  0  0  0  0
    2.6077   -1.4236    0.0000 H   0  0  0  0  0  0  0  0  0  0  0  0
    2.6077    1.5296    0.0000 H   0  0  0  0  0  0  0  0  0  0  0  0
    1.9174    1.1311    0.0000 H   0  0  0  0  0  0  0  0  0  0  0  0
    1.5250    0.4515    0.0000 H   0  0  0  0  0  0  0  0  0  0  0  0
    1.5250   -0.3456    0.0000 H   0  0  0  0  0  0  0  0  0  0  0  0
    4.7168   -1.3625    0.0000 H   0  0  0  0  0  0  0  0  0  0  0  0
    2.8800   -1.8130    0.0000 H   0  0  0  0  0  0  0  0  0  0  0  0
    3.5000   -2.4330    0.0000 H   0  0  0  0  0  0  0  0  0  0  0  0
    4.1200   -1.8130    0.0000 H   0  0  0  0  0  0  0  0  0  0  0  0
    6.6946    1.6548    0.0000 H   0  0  0  0  0  0  0  0  0  0  0  0
    5.9019    1.5714    0.0000 H   0  0  0  0  0  0  0  0  0  0  0  0
    8.5869   -0.4439    0.0000 H   0  0  0  0  0  0  0  0  0  0  0  0
    9.7282    2.1195    0.0000 H   0  0  0  0  0  0  0  0  0  0  0  0
   10.0668   -1.1028    0.0000 H   0  0  0  0  0  0  0  0  0  0  0  0
   11.2081    1.4606    0.0000 H   0  0  0  0  0  0  0  0  0  0  0  0
   12.8980   -0.2189    0.0000 H   0  0  0  0  0  0  0  0  0  0  0  0
   13.0352    0.6471    0.0000 H   0  0  0  0  0  0  0  0  0  0  0  0
   12.1692    0.7842    0.0000 H   0  0  0  0  0  0  0  0  0  0  0  0
  1 14  2  0  0  0  0 
  2 16  2  0  0  0  0 
  3 18  1  0  0  0  0 
  3 19  1  0  0  0  0 
  4 18  2  0  0  0  0 
  5 25  2  0  0  0  0 
  6  8  1  0  0  0  0 
  6 16  1  0  0  0  0 
  6 36  1  0  0  0  0 
  7 14  1  0  0  0  0 
  7 16  1  0  0  0  0 
  7 17  1  0  0  0  0 
  8  9  1  0  0  0  0 
  8 10  1  0  0  0  0 
  8 14  1  0  0  0  0 
  9 11  1  0  0  0  0 
  9 15  1  0  0  0  0 
  9 27  1  0  0  0  0 
 10 12  1  0  0  0  0 
 10 28  1  0  0  0  0 
 10 29  1  0  0  0  0 
 11 13  1  0  0  0  0 
 11 30  1  0  0  0  0 
 11 31  1  0  0  0  0 
 12 13  1  0  0  0  0 
 12 32  1  0  0  0  0 
 12 33  1  0  0  0  0 
 13 34  1  0  0  0  0 
 13 35  1  0  0  0  0 
 15 37  1  0  0  0  0 
 15 38  1  0  0  0  0 
 15 39  1  0  0  0  0 
 17 18  1  0  0  0  0 
 17 40  1  0  0  0  0 
 17 41  1  0  0  0  0 
 19 20  2  0  0  0  0 
 19 21  1  0  0  0  0 
 20 22  1  0  0  0  0 
 20 42  1  0  0  0  0 
 21 23  2  0  0  0  0 
 21 43  1  0  0  0  0 
 22 24  2  0  0  0  0 
 22 44  1  0  0  0  0 
 23 24  1  0  0  0  0 
 23 45  1  0  0  0  0 
 24 25  1  0  0  0  0 
 25 26  1  0  0  0  0 
 26 46  1  0  0  0  0 
 26 47  1  0  0  0  0 
 26 48  1  0  0  0  0 
M  END
> <cdk:Title>
16548540

> <cdk:Remark>
null

> <PUBCHEM_COMPOUND_CID>
16548540

> <PUBCHEM_COMPOUND_CANONICALIZED>
1

> <PUBCHEM_CACTVS_COMPLEXITY>
611

> <PUBCHEM_CACTVS_HBOND_ACCEPTOR>
5

> <PUBCHEM_CACTVS_HBOND_DONOR>
1

> <PUBCHEM_CACTVS_ROTATABLE_BOND>
5

> <PUBCHEM_CACTVS_SUBSKEYS>
AAADceB7OAAAAAAAAAAAAAAAAAAAAWAAAAAwYAAAAAAAAAABAAAAHgAQAAAADYzBmAQzDoPABACIAqHSGAACCAAkIAAIiAGOCMiOZjKEtTqXOyCs1zOYqYeYzIDOoAAAAAAAAABAAAAAACQAAAAAAAAAAA==

> <PUBCHEM_IUPAC_OPENEYE_NAME>
(4-acetylphenyl) 2-(6-methyl-2,4-dioxo-1,3-diazaspiro[4.5]decan-3-yl)acetate

> <PUBCHEM_IUPAC_CAS_NAME>
2-(6-methyl-2,4-dioxo-1,3-diazaspiro[4.5]decan-3-yl)acetic acid (4-acetylphenyl) ester

> <PUBCHEM_IUPAC_NAME>
(4-acetylphenyl) 2-(6-methyl-2,4-dioxo-1,3-diazaspiro[4.5]decan-3-yl)acetate

> <PUBCHEM_IUPAC_SYSTEMATIC_NAME>
(4-ethanoylphenyl) 2-[6-methyl-2,4-bis(oxidanylidene)-1,3-diazaspiro[4.5]decan-3-yl]ethanoate

> <PUBCHEM_IUPAC_TRADITIONAL_NAME>
2-(2,4-diketo-6-methyl-1,3-diazaspiro[4.5]decan-3-yl)acetic acid (4-acetylphenyl) ester

> <PUBCHEM_IUPAC_INCHI>
InChI=1S/C19H22N2O5/c1-12-5-3-4-10-19(12)17(24)21(18(25)20-19)11-16(23)26-15-8-6-14(7-9-15)13(2)22/h6-9,12H,3-5,10-11H2,1-2H3,(H,20,25)

> <PUBCHEM_IUPAC_INCHIKEY>
ODDBBLMFPKBPSK-UHFFFAOYSA-N

> <PUBCHEM_XLOGP3_AA>
2.3

> <PUBCHEM_EXACT_MASS>
358.152872

> <PUBCHEM_MOLECULAR_FORMULA>
C19H22N2O5

> <PUBCHEM_MOLECULAR_WEIGHT>
358.38838

> <PUBCHEM_OPENEYE_CAN_SMILES>
CC1CCCCC12C(=O)N(C(=O)N2)CC(=O)OC3=CC=C(C=C3)C(=O)C

> <PUBCHEM_OPENEYE_ISO_SMILES>
CC1CCCCC12C(=O)N(C(=O)N2)CC(=O)OC3=CC=C(C=C3)C(=O)C

> <PUBCHEM_CACTVS_TPSA>
92.8

> <PUBCHEM_MONOISOTOPIC_WEIGHT>
358.152872

> <PUBCHEM_TOTAL_CHARGE>
0

> <PUBCHEM_HEAVY_ATOM_COUNT>
26

> <PUBCHEM_ATOM_DEF_STEREO_COUNT>
0

> <PUBCHEM_ATOM_UDEF_STEREO_COUNT>
2

> <PUBCHEM_BOND_DEF_STEREO_COUNT>
0

> <PUBCHEM_BOND_UDEF_STEREO_COUNT>
0

> <PUBCHEM_ISOTOPIC_ATOM_COUNT>
0

> <PUBCHEM_COMPONENT_COUNT>
1

> <PUBCHEM_CACTVS_TAUTO_COUNT>
4

> <PUBCHEM_COORDINATE_TYPE>
1

> <PUBCHEM_BONDANNOTATIONS>
19  20  8

$$$$
