17332461
  CDK     1205141210

 39 39  0  0  0  0  0  0  0  0999 V2000
    4.8671    0.6200    0.0000 Br  0  0  0  0  0  0  0  0  0  0  0  0
    3.5010    9.7400    0.0000 Cl  0  0  0  0  0  0  0  0  0  0  0  0
    1.4030    2.6200    0.0000 O   0  0  0  0  0  0  0  0  0  0  0  0
    4.0010    4.1200    0.0000 N   0  0  0  0  0  0  0  0  0  0  0  0
    3.1350    3.6200    0.0000 C   0  0  0  0  0  0  0  0  0  0  0  0
    4.0010    5.1200    0.0000 C   0  0  0  0  0  0  0  0  0  0  0  0
    3.1350    2.6200    0.0000 C   0  0  0  0  0  0  0  0  0  0  0  0
    4.8671    5.6200    0.0000 C   0  0  0  0  0  0  0  0  0  0  0  0
    2.2690    2.1200    0.0000 C   0  0  0  0  0  0  0  0  0  0  0  0
    5.7331    5.1200    0.0000 C   0  0  0  0  0  0  0  0  0  0  0  0
    4.8671    6.6200    0.0000 C   0  0  0  0  0  0  0  0  0  0  0  0
    4.0010    2.1200    0.0000 C   0  0  0  0  0  0  0  0  0  0  0  0
    6.5991    6.6200    0.0000 C   0  0  0  0  0  0  0  0  0  0  0  0
    6.5991    5.6200    0.0000 C   0  0  0  0  0  0  0  0  0  0  0  0
    5.7331    7.1200    0.0000 C   0  0  0  0  0  0  0  0  0  0  0  0
    2.2690    1.1200    0.0000 C   0  0  0  0  0  0  0  0  0  0  0  0
    4.0010    1.1200    0.0000 C   0  0  0  0  0  0  0  0  0  0  0  0
    3.1350    0.6200    0.0000 C   0  0  0  0  0  0  0  0  0  0  0  0
    7.4651    7.1200    0.0000 C   0  0  0  0  0  0  0  0  0  0  0  0
    0.5369    2.1200    0.0000 C   0  0  0  0  0  0  0  0  0  0  0  0
    2.9230    4.2026    0.0000 H   0  0  0  0  0  0  0  0  0  0  0  0
    2.5244    3.5123    0.0000 H   0  0  0  0  0  0  0  0  0  0  0  0
    3.7890    5.7026    0.0000 H   0  0  0  0  0  0  0  0  0  0  0  0
    3.3905    5.0123    0.0000 H   0  0  0  0  0  0  0  0  0  0  0  0
    4.5380    3.8100    0.0000 H   0  0  0  0  0  0  0  0  0  0  0  0
    5.7331    4.5000    0.0000 H   0  0  0  0  0  0  0  0  0  0  0  0
    4.3301    6.9300    0.0000 H   0  0  0  0  0  0  0  0  0  0  0  0
    4.5380    2.4300    0.0000 H   0  0  0  0  0  0  0  0  0  0  0  0
    7.1360    5.3100    0.0000 H   0  0  0  0  0  0  0  0  0  0  0  0
    5.7331    7.7400    0.0000 H   0  0  0  0  0  0  0  0  0  0  0  0
    1.7320    0.8100    0.0000 H   0  0  0  0  0  0  0  0  0  0  0  0
    3.1350    0.0000    0.0000 H   0  0  0  0  0  0  0  0  0  0  0  0
    7.7751    6.5831    0.0000 H   0  0  0  0  0  0  0  0  0  0  0  0
    8.0021    7.4300    0.0000 H   0  0  0  0  0  0  0  0  0  0  0  0
    7.1551    7.6569    0.0000 H   0  0  0  0  0  0  0  0  0  0  0  0
    0.2269    2.6569    0.0000 H   0  0  0  0  0  0  0  0  0  0  0  0
    0.0000    1.8100    0.0000 H   0  0  0  0  0  0  0  0  0  0  0  0
    0.8469    1.5831    0.0000 H   0  0  0  0  0  0  0  0  0  0  0  0
    4.5010    9.7400    0.0000 H   0  0  0  0  0  0  0  0  0  0  0  0
  1 17  1  0  0  0  0 
  2 39  1  0  0  0  0 
  3  9  1  0  0  0  0 
  3 20  1  0  0  0  0 
  4  5  1  0  0  0  0 
  4  6  1  0  0  0  0 
  4 25  1  0  0  0  0 
  5  7  1  0  0  0  0 
  5 21  1  0  0  0  0 
  5 22  1  0  0  0  0 
  6  8  1  0  0  0  0 
  6 23  1  0  0  0  0 
  6 24  1  0  0  0  0 
  7  9  2  0  0  0  0 
  7 12  1  0  0  0  0 
  8 10  2  0  0  0  0 
  8 11  1  0  0  0  0 
  9 16  1  0  0  0  0 
 10 14  1  0  0  0  0 
 10 26  1  0  0  0  0 
 11 15  2  0  0  0  0 
 11 27  1  0  0  0  0 
 12 17  2  0  0  0  0 
 12 28  1  0  0  0  0 
 13 14  2  0  0  0  0 
 13 15  1  0  0  0  0 
 13 19  1  0  0  0  0 
 14 29  1  0  0  0  0 
 15 30  1  0  0  0  0 
 16 18  2  0  0  0  0 
 16 31  1  0  0  0  0 
 17 18  1  0  0  0  0 
 18 32  1  0  0  0  0 
 19 33  1  0  0  0  0 
 19 34  1  0  0  0  0 
 19 35  1  0  0  0  0 
 20 36  1  0  0  0  0 
 20 37  1  0  0  0  0 
 20 38  1  0  0  0  0 
M  END
> <cdk:Title>
17332461

> <cdk:Remark>
null

> <PUBCHEM_COMPOUND_CID>
17332461

> <PUBCHEM_COMPOUND_CANONICALIZED>
1

> <PUBCHEM_CACTVS_COMPLEXITY>
253

> <PUBCHEM_CACTVS_HBOND_ACCEPTOR>
2

> <PUBCHEM_CACTVS_HBOND_DONOR>
2

> <PUBCHEM_CACTVS_ROTATABLE_BOND>
5

> <PUBCHEM_CACTVS_SUBSKEYS>
AAADceB6IAAEEAAAAAAAAAAAAAAAAAAAAAAwYAAAAAAAAAABQAAAHgBQAAABrATBmAYyBoLABACAAiBCAACCCAAgIAQIiIAODKgMJiKEsRuEMChmwBGIqheQwCAOQBAAEAAIAACAIAAgABAAAAAAAAAAAA==

> <PUBCHEM_IUPAC_OPENEYE_NAME>
N-[(5-bromo-2-methoxy-phenyl)methyl]-1-(p-tolyl)methanamine;hydrochloride

> <PUBCHEM_IUPAC_CAS_NAME>
N-[(5-bromo-2-methoxyphenyl)methyl]-1-(4-methylphenyl)methanamine;hydrochloride

> <PUBCHEM_IUPAC_NAME>
N-[(5-bromo-2-methoxyphenyl)methyl]-1-(4-methylphenyl)methanamine;hydrochloride

> <PUBCHEM_IUPAC_SYSTEMATIC_NAME>
N-[(5-bromanyl-2-methoxy-phenyl)methyl]-1-(4-methylphenyl)methanamine;hydrochloride

> <PUBCHEM_IUPAC_TRADITIONAL_NAME>
(5-bromo-2-methoxy-benzyl)-(4-methylbenzyl)amine;hydrochloride

> <PUBCHEM_IUPAC_INCHI>
InChI=1S/C16H18BrNO.ClH/c1-12-3-5-13(6-4-12)10-18-11-14-9-15(17)7-8-16(14)19-2;/h3-9,18H,10-11H2,1-2H3;1H

> <PUBCHEM_IUPAC_INCHIKEY>
ZIFAUHKRJXWUKH-UHFFFAOYSA-N

> <PUBCHEM_EXACT_MASS>
355.033854

> <PUBCHEM_MOLECULAR_FORMULA>
C16H19BrClNO

> <PUBCHEM_MOLECULAR_WEIGHT>
356.68516

> <PUBCHEM_OPENEYE_CAN_SMILES>
CC1=CC=C(C=C1)CNCC2=C(C=CC(=C2)Br)OC.Cl

> <PUBCHEM_OPENEYE_ISO_SMILES>
CC1=CC=C(C=C1)CNCC2=C(C=CC(=C2)Br)OC.Cl

> <PUBCHEM_CACTVS_TPSA>
21.3

> <PUBCHEM_MONOISOTOPIC_WEIGHT>
355.033854

> <PUBCHEM_TOTAL_CHARGE>
0

> <PUBCHEM_HEAVY_ATOM_COUNT>
20

> <PUBCHEM_ATOM_DEF_STEREO_COUNT>
0

> <PUBCHEM_ATOM_UDEF_STEREO_COUNT>
0

> <PUBCHEM_BOND_DEF_STEREO_COUNT>
0

> <PUBCHEM_BOND_UDEF_STEREO_COUNT>
0

> <PUBCHEM_ISOTOPIC_ATOM_COUNT>
0

> <PUBCHEM_COMPONENT_COUNT>
2

> <PUBCHEM_CACTVS_TAUTO_COUNT>
1

> <PUBCHEM_COORDINATE_TYPE>
1

> <PUBCHEM_BONDANNOTATIONS>
10  14  8

$$$$
17332461
  CDK     1205141211

 39 39  0  0  0  0  0  0  0  0999 V2000
    4.8671    0.6200    0.0000 Br  0  0  0  0  0  0  0  0  0  0  0  0
    3.5010    9.7400    0.0000 Cl  0  0  0  0  0  0  0  0  0  0  0  0
    1.4030    2.6200    0.0000 O   0  0  0  0  0  0  0  0  0  0  0  0
    4.0010    4.1200    0.0000 N   0  0  0  0  0  0  0  0  0  0  0  0
    3.1350    3.6200    0.0000 C   0  0  0  0  0  0  0  0  0  0  0  0
    4.0010    5.1200    0.0000 C   0  0  0  0  0  0  0  0  0  0  0  0
    3.1350    2.6200    0.0000 C   0  0  0  0  0  0  0  0  0  0  0  0
    4.8671    5.6200    0.0000 C   0  0  0  0  0  0  0  0  0  0  0  0
    2.2690    2.1200    0.0000 C   0  0  0  0  0  0  0  0  0  0  0  0
    5.7331    5.1200    0.0000 C   0  0  0  0  0  0  0  0  0  0  0  0
    4.8671    6.6200    0.0000 C   0  0  0  0  0  0  0  0  0  0  0  0
    4.0010    2.1200    0.0000 C   0  0  0  0  0  0  0  0  0  0  0  0
    6.5991    6.6200    0.0000 C   0  0  0  0  0  0  0  0  0  0  0  0
    6.5991    5.6200    0.0000 C   0  0  0  0  0  0  0  0  0  0  0  0
    5.7331    7.1200    0.0000 C   0  0  0  0  0  0  0  0  0  0  0  0
    2.2690    1.1200    0.0000 C   0  0  0  0  0  0  0  0  0  0  0  0
    4.0010    1.1200    0.0000 C   0  0  0  0  0  0  0  0  0  0  0  0
    3.1350    0.6200    0.0000 C   0  0  0  0  0  0  0  0  0  0  0  0
    7.4651    7.1200    0.0000 C   0  0  0  0  0  0  0  0  0  0  0  0
    0.5369    2.1200    0.0000 C   0  0  0  0  0  0  0  0  0  0  0  0
    2.9230    4.2026    0.0000 H   0  0  0  0  0  0  0  0  0  0  0  0
    2.5244    3.5123    0.0000 H   0  0  0  0  0  0  0  0  0  0  0  0
    3.7890    5.7026    0.0000 H   0  0  0  0  0  0  0  0  0  0  0  0
    3.3905    5.0123    0.0000 H   0  0  0  0  0  0  0  0  0  0  0  0
    4.5380    3.8100    0.0000 H   0  0  0  0  0  0  0  0  0  0  0  0
    5.7331    4.5000    0.0000 H   0  0  0  0  0  0  0  0  0  0  0  0
    4.3301    6.9300    0.0000 H   0  0  0  0  0  0  0  0  0  0  0  0
    4.5380    2.4300    0.0000 H   0  0  0  0  0  0  0  0  0  0  0  0
    7.1360    5.3100    0.0000 H   0  0  0  0  0  0  0  0  0  0  0  0
    5.7331    7.7400    0.0000 H   0  0  0  0  0  0  0  0  0  0  0  0
    1.7320    0.8100    0.0000 H   0  0  0  0  0  0  0  0  0  0  0  0
    3.1350    0.0000    0.0000 H   0  0  0  0  0  0  0  0  0  0  0  0
    7.7751    6.5831    0.0000 H   0  0  0  0  0  0  0  0  0  0  0  0
    8.0021    7.4300    0.0000 H   0  0  0  0  0  0  0  0  0  0  0  0
    7.1551    7.6569    0.0000 H   0  0  0  0  0  0  0  0  0  0  0  0
    0.2269    2.6569    0.0000 H   0  0  0  0  0  0  0  0  0  0  0  0
    0.0000    1.8100    0.0000 H   0  0  0  0  0  0  0  0  0  0  0  0
    0.8469    1.5831    0.0000 H   0  0  0  0  0  0  0  0  0  0  0  0
    4.5010    9.7400    0.0000 H   0  0  0  0  0  0  0  0  0  0  0  0
  1 17  1  0  0  0  0 
  2 39  1  0  0  0  0 
  3  9  1  0  0  0  0 
  3 20  1  0  0  0  0 
  4  5  1  0  0  0  0 
  4  6  1  0  0  0  0 
  4 25  1  0  0  0  0 
  5  7  1  0  0  0  0 
  5 21  1  0  0  0  0 
  5 22  1  0  0  0  0 
  6  8  1  0  0  0  0 
  6 23  1  0  0  0  0 
  6 24  1  0  0  0  0 
  7  9  2  0  0  0  0 
  7 12  1  0  0  0  0 
  8 10  2  0  0  0  0 
  8 11  1  0  0  0  0 
  9 16  1  0  0  0  0 
 10 14  1  0  0  0  0 
 10 26  1  0  0  0  0 
 11 15  2  0  0  0  0 
 11 27  1  0  0  0  0 
 12 17  2  0  0  0  0 
 12 28  1  0  0  0  0 
 13 14  2  0  0  0  0 
 13 15  1  0  0  0  0 
 13 19  1  0  0  0  0 
 14 29  1  0  0  0  0 
 15 30  1  0  0  0  0 
 16 18  2  0  0  0  0 
 16 31  1  0  0  0  0 
 17 18  1  0  0  0  0 
 18 32  1  0  0  0  0 
 19 33  1  0  0  0  0 
 19 34  1  0  0  0  0 
 19 35  1  0  0  0  0 
 20 36  1  0  0  0  0 
 20 37  1  0  0  0  0 
 20 38  1  0  0  0  0 
M  END
> <cdk:Title>
17332461

> <cdk:Remark>
null

> <PUBCHEM_COMPOUND_CID>
17332461

> <PUBCHEM_COMPOUND_CANONICALIZED>
1

> <PUBCHEM_CACTVS_COMPLEXITY>
253

> <PUBCHEM_CACTVS_HBOND_ACCEPTOR>
2

> <PUBCHEM_CACTVS_HBOND_DONOR>
2

> <PUBCHEM_CACTVS_ROTATABLE_BOND>
5

> <PUBCHEM_CACTVS_SUBSKEYS>
AAADceB6IAAEEAAAAAAAAAAAAAAAAAAAAAAwYAAAAAAAAAABQAAAHgBQAAABrATBmAYyBoLABACAAiBCAACCCAAgIAQIiIAODKgMJiKEsRuEMChmwBGIqheQwCAOQBAAEAAIAACAIAAgABAAAAAAAAAAAA==

> <PUBCHEM_IUPAC_OPENEYE_NAME>
N-[(5-bromo-2-methoxy-phenyl)methyl]-1-(p-tolyl)methanamine;hydrochloride

> <PUBCHEM_IUPAC_CAS_NAME>
N-[(5-bromo-2-methoxyphenyl)methyl]-1-(4-methylphenyl)methanamine;hydrochloride

> <PUBCHEM_IUPAC_NAME>
N-[(5-bromo-2-methoxyphenyl)methyl]-1-(4-methylphenyl)methanamine;hydrochloride

> <PUBCHEM_IUPAC_SYSTEMATIC_NAME>
N-[(5-bromanyl-2-methoxy-phenyl)methyl]-1-(4-methylphenyl)methanamine;hydrochloride

> <PUBCHEM_IUPAC_TRADITIONAL_NAME>
(5-bromo-2-methoxy-benzyl)-(4-methylbenzyl)amine;hydrochloride

> <PUBCHEM_IUPAC_INCHI>
InChI=1S/C16H18BrNO.ClH/c1-12-3-5-13(6-4-12)10-18-11-14-9-15(17)7-8-16(14)19-2;/h3-9,18H,10-11H2,1-2H3;1H

> <PUBCHEM_IUPAC_INCHIKEY>
ZIFAUHKRJXWUKH-UHFFFAOYSA-N

> <PUBCHEM_EXACT_MASS>
355.033854

> <PUBCHEM_MOLECULAR_FORMULA>
C16H19BrClNO

> <PUBCHEM_MOLECULAR_WEIGHT>
356.68516

> <PUBCHEM_OPENEYE_CAN_SMILES>
CC1=CC=C(C=C1)CNCC2=C(C=CC(=C2)Br)OC.Cl

> <PUBCHEM_OPENEYE_ISO_SMILES>
CC1=CC=C(C=C1)CNCC2=C(C=CC(=C2)Br)OC.Cl

> <PUBCHEM_CACTVS_TPSA>
21.3

> <PUBCHEM_MONOISOTOPIC_WEIGHT>
355.033854

> <PUBCHEM_TOTAL_CHARGE>
0

> <PUBCHEM_HEAVY_ATOM_COUNT>
20

> <PUBCHEM_ATOM_DEF_STEREO_COUNT>
0

> <PUBCHEM_ATOM_UDEF_STEREO_COUNT>
0

> <PUBCHEM_BOND_DEF_STEREO_COUNT>
0

> <PUBCHEM_BOND_UDEF_STEREO_COUNT>
0

> <PUBCHEM_ISOTOPIC_ATOM_COUNT>
0

> <PUBCHEM_COMPONENT_COUNT>
2

> <PUBCHEM_CACTVS_TAUTO_COUNT>
1

> <PUBCHEM_COORDINATE_TYPE>
1

> <PUBCHEM_BONDANNOTATIONS>
10  14  8

$$$$
