29936641
  CDK     1205141211

 24 23  0  0  0  0  0  0  0  0999 V2000
    4.5981   -1.2500    0.0000 S   0  0  0  0  0  0  0  0  0  0  0  0
    2.8660   -0.2500    0.0000 S   0  0  0  0  0  0  0  0  0  0  0  0
    6.3301   -0.2500    0.0000 O   0  0  0  0  0  0  0  0  0  0  0  0
    5.4641    0.2500    0.0000 C   0  0  2  0  0  0  0  0  0  0  0  0
    5.4641    1.2500    0.0000 C   0  0  0  0  0  0  0  0  0  0  0  0
    4.5981   -0.2500    0.0000 C   0  0  0  0  0  0  0  0  0  0  0  0
    6.3301    1.7500    0.0000 C   0  0  0  0  0  0  0  0  0  0  0  0
    3.7320    0.2500    0.0000 C   0  0  0  0  0  0  0  0  0  0  0  0
    5.4641   -1.7500    0.0000 C   0  0  0  0  0  0  0  0  0  0  0  0
    2.0000    0.2500    0.0000 C   0  0  0  0  0  0  0  0  0  0  0  0
    5.4641   -0.3700    0.0000 H   0  0  0  0  0  0  0  0  0  0  0  0
    5.2520    1.8326    0.0000 H   0  0  0  0  0  0  0  0  0  0  0  0
    4.8535    1.1423    0.0000 H   0  0  0  0  0  0  0  0  0  0  0  0
    6.6401    1.2131    0.0000 H   0  0  0  0  0  0  0  0  0  0  0  0
    6.8671    2.0600    0.0000 H   0  0  0  0  0  0  0  0  0  0  0  0
    6.0201    2.2869    0.0000 H   0  0  0  0  0  0  0  0  0  0  0  0
    3.7320    0.8700    0.0000 H   0  0  0  0  0  0  0  0  0  0  0  0
    6.8671    0.0600    0.0000 H   0  0  0  0  0  0  0  0  0  0  0  0
    5.1541   -2.2869    0.0000 H   0  0  0  0  0  0  0  0  0  0  0  0
    6.0010   -2.0600    0.0000 H   0  0  0  0  0  0  0  0  0  0  0  0
    5.7741   -1.2131    0.0000 H   0  0  0  0  0  0  0  0  0  0  0  0
    2.3100    0.7869    0.0000 H   0  0  0  0  0  0  0  0  0  0  0  0
    1.4631    0.5600    0.0000 H   0  0  0  0  0  0  0  0  0  0  0  0
    1.6900   -0.2869    0.0000 H   0  0  0  0  0  0  0  0  0  0  0  0
  1  6  1  0  0  0  0 
  1  9  1  0  0  0  0 
  2  8  1  0  0  0  0 
  2 10  1  0  0  0  0 
  4  3  1  1  0  0  0 
  3 18  1  0  0  0  0 
  4  5  1  0  0  0  0 
  4  6  1  0  0  0  0 
  4 11  1  0  0  0  0 
  5  7  1  0  0  0  0 
  5 12  1  0  0  0  0 
  5 13  1  0  0  0  0 
  6  8  2  0  0  0  0 
  7 14  1  0  0  0  0 
  7 15  1  0  0  0  0 
  7 16  1  0  0  0  0 
  8 17  1  0  0  0  0 
  9 19  1  0  0  0  0 
  9 20  1  0  0  0  0 
  9 21  1  0  0  0  0 
 10 22  1  0  0  0  0 
 10 23  1  0  0  0  0 
 10 24  1  0  0  0  0 
M  END
> <cdk:Title>
29936641

> <cdk:Remark>
null

> <PUBCHEM_COMPOUND_CID>
29936641

> <PUBCHEM_COMPOUND_CANONICALIZED>
1

> <PUBCHEM_CACTVS_COMPLEXITY>
112

> <PUBCHEM_CACTVS_HBOND_ACCEPTOR>
3

> <PUBCHEM_CACTVS_HBOND_DONOR>
1

> <PUBCHEM_CACTVS_ROTATABLE_BOND>
4

> <PUBCHEM_CACTVS_SUBSKEYS>
AAADccBgIABgAAAAAAAAAAAAAAAAAAAAAAAAAAAAAAAAAAAAAAAAGgQACAAACBSkwAKCAAAAAgiAAABCAAAAAAAgABAAAAAAAAgAFAAgAQAAQAAAgAAAEAAAAAAAAAAAAAAAAAAAAAAAAAAAAAAAAAAAAA==

> <PUBCHEM_IUPAC_OPENEYE_NAME>
(Z,3R)-1,2-bis(methylsulfanyl)pent-1-en-3-ol

> <PUBCHEM_IUPAC_CAS_NAME>
(Z,3R)-1,2-bis(methylthio)-1-penten-3-ol

> <PUBCHEM_IUPAC_NAME>
(Z,3R)-1,2-bis(methylsulfanyl)pent-1-en-3-ol

> <PUBCHEM_IUPAC_SYSTEMATIC_NAME>
(Z,3R)-1,2-bis(methylsulfanyl)pent-1-en-3-ol

> <PUBCHEM_IUPAC_TRADITIONAL_NAME>
(Z,3R)-1,2-bis(methylthio)pent-1-en-3-ol

> <PUBCHEM_IUPAC_INCHI>
InChI=1S/C7H14OS2/c1-4-6(8)7(10-3)5-9-2/h5-6,8H,4H2,1-3H3/b7-5-/t6-/m1/s1

> <PUBCHEM_IUPAC_INCHIKEY>
RQRWSGRUSJXRJY-XOQWBGJWSA-N

> <PUBCHEM_XLOGP3_AA>
1.6

> <PUBCHEM_EXACT_MASS>
178.048607

> <PUBCHEM_MOLECULAR_FORMULA>
C7H14OS2

> <PUBCHEM_MOLECULAR_WEIGHT>
178.31546

> <PUBCHEM_OPENEYE_CAN_SMILES>
CCC(C(=CSC)SC)O

> <PUBCHEM_OPENEYE_ISO_SMILES>
CC[C@H](/C(=C/SC)/SC)O

> <PUBCHEM_CACTVS_TPSA>
70.8

> <PUBCHEM_MONOISOTOPIC_WEIGHT>
178.048607

> <PUBCHEM_TOTAL_CHARGE>
0

> <PUBCHEM_HEAVY_ATOM_COUNT>
10

> <PUBCHEM_ATOM_DEF_STEREO_COUNT>
1

> <PUBCHEM_ATOM_UDEF_STEREO_COUNT>
0

> <PUBCHEM_BOND_DEF_STEREO_COUNT>
1

> <PUBCHEM_BOND_UDEF_STEREO_COUNT>
0

> <PUBCHEM_ISOTOPIC_ATOM_COUNT>
0

> <PUBCHEM_COMPONENT_COUNT>
1

> <PUBCHEM_CACTVS_TAUTO_COUNT>
1

> <PUBCHEM_COORDINATE_TYPE>
1

> <PUBCHEM_BONDANNOTATIONS>
4  3  5

$$$$
