31076480
  CDK     1205141211

 46 47  0  0  0  0  0  0  0  0999 V2000
    2.0000   -2.2500    0.0000 O   0  0  0  0  0  0  0  0  0  0  0  0
    6.3301    3.2500    0.0000 O   0  0  0  0  0  0  0  0  0  0  0  0
    2.8660    2.2500    0.0000 O   0  0  0  0  0  0  0  0  0  0  0  0
    3.7320   -2.2500    0.0000 N   0  0  0  0  0  0  0  0  0  0  0  0
    4.5981    2.2500    0.0000 N   0  0  0  0  0  0  0  0  0  0  0  0
    2.8660   -3.7500    0.0000 C   0  0  1  0  0  0  0  0  0  0  0  0
    2.0000   -4.2500    0.0000 C   0  0  0  0  0  0  0  0  0  0  0  0
    2.8660   -2.7500    0.0000 C   0  0  0  0  0  0  0  0  0  0  0  0
    3.7320   -4.2500    0.0000 C   0  0  0  0  0  0  0  0  0  0  0  0
    2.0000   -5.2500    0.0000 C   0  0  0  0  0  0  0  0  0  0  0  0
    3.7320   -1.2500    0.0000 C   0  0  0  0  0  0  0  0  0  0  0  0
    3.7320    0.7500    0.0000 C   0  0  0  0  0  0  0  0  0  0  0  0
    4.5981   -0.7500    0.0000 C   0  0  0  0  0  0  0  0  0  0  0  0
    2.8660   -0.7500    0.0000 C   0  0  0  0  0  0  0  0  0  0  0  0
    4.5981    0.2500    0.0000 C   0  0  0  0  0  0  0  0  0  0  0  0
    2.8660    0.2500    0.0000 C   0  0  0  0  0  0  0  0  0  0  0  0
    3.7320    1.7500    0.0000 C   0  0  0  0  0  0  0  0  0  0  0  0
    4.5981    3.2500    0.0000 C   0  0  0  0  0  0  0  0  0  0  0  0
    5.4641    3.7500    0.0000 C   0  0  0  0  0  0  0  0  0  0  0  0
    3.7320    3.7500    0.0000 C   0  0  0  0  0  0  0  0  0  0  0  0
    5.4641    4.7500    0.0000 C   0  0  0  0  0  0  0  0  0  0  0  0
    3.7320    4.7500    0.0000 C   0  0  0  0  0  0  0  0  0  0  0  0
    4.5981    5.2500    0.0000 C   0  0  0  0  0  0  0  0  0  0  0  0
    7.1962    3.7500    0.0000 C   0  0  0  0  0  0  0  0  0  0  0  0
    2.8660   -4.3700    0.0000 H   0  0  0  0  0  0  0  0  0  0  0  0
    1.7880   -3.6674    0.0000 H   0  0  0  0  0  0  0  0  0  0  0  0
    1.3894   -4.3577    0.0000 H   0  0  0  0  0  0  0  0  0  0  0  0
    3.4220   -4.7869    0.0000 H   0  0  0  0  0  0  0  0  0  0  0  0
    4.2690   -4.5600    0.0000 H   0  0  0  0  0  0  0  0  0  0  0  0
    4.0420   -3.7131    0.0000 H   0  0  0  0  0  0  0  0  0  0  0  0
    1.3800   -5.2500    0.0000 H   0  0  0  0  0  0  0  0  0  0  0  0
    2.0000   -5.8700    0.0000 H   0  0  0  0  0  0  0  0  0  0  0  0
    2.6200   -5.2500    0.0000 H   0  0  0  0  0  0  0  0  0  0  0  0
    4.2690   -2.5600    0.0000 H   0  0  0  0  0  0  0  0  0  0  0  0
    5.1350   -1.0600    0.0000 H   0  0  0  0  0  0  0  0  0  0  0  0
    2.3291   -1.0600    0.0000 H   0  0  0  0  0  0  0  0  0  0  0  0
    5.1350    0.5600    0.0000 H   0  0  0  0  0  0  0  0  0  0  0  0
    2.3291    0.5600    0.0000 H   0  0  0  0  0  0  0  0  0  0  0  0
    5.1350    1.9400    0.0000 H   0  0  0  0  0  0  0  0  0  0  0  0
    3.1951    3.4400    0.0000 H   0  0  0  0  0  0  0  0  0  0  0  0
    6.0010    5.0600    0.0000 H   0  0  0  0  0  0  0  0  0  0  0  0
    3.1951    5.0600    0.0000 H   0  0  0  0  0  0  0  0  0  0  0  0
    4.5981    5.8700    0.0000 H   0  0  0  0  0  0  0  0  0  0  0  0
    7.5062    3.2131    0.0000 H   0  0  0  0  0  0  0  0  0  0  0  0
    7.7331    4.0600    0.0000 H   0  0  0  0  0  0  0  0  0  0  0  0
    6.8862    4.2869    0.0000 H   0  0  0  0  0  0  0  0  0  0  0  0
  1  8  2  0  0  0  0 
  2 19  1  0  0  0  0 
  2 24  1  0  0  0  0 
  3 17  2  0  0  0  0 
  4  8  1  0  0  0  0 
  4 11  1  0  0  0  0 
  4 34  1  0  0  0  0 
  5 17  1  0  0  0  0 
  5 18  1  0  0  0  0 
  5 39  1  0  0  0  0 
  6  7  1  0  0  0  0 
  6  8  1  0  0  0  0 
  6  9  1  1  0  0  0 
  6 25  1  0  0  0  0 
  7 10  1  0  0  0  0 
  7 26  1  0  0  0  0 
  7 27  1  0  0  0  0 
  9 28  1  0  0  0  0 
  9 29  1  0  0  0  0 
  9 30  1  0  0  0  0 
 10 31  1  0  0  0  0 
 10 32  1  0  0  0  0 
 10 33  1  0  0  0  0 
 11 13  2  0  0  0  0 
 11 14  1  0  0  0  0 
 12 15  2  0  0  0  0 
 12 16  1  0  0  0  0 
 12 17  1  0  0  0  0 
 13 15  1  0  0  0  0 
 13 35  1  0  0  0  0 
 14 16  2  0  0  0  0 
 14 36  1  0  0  0  0 
 15 37  1  0  0  0  0 
 16 38  1  0  0  0  0 
 18 19  1  0  0  0  0 
 18 20  2  0  0  0  0 
 19 21  2  0  0  0  0 
 20 22  1  0  0  0  0 
 20 40  1  0  0  0  0 
 21 23  1  0  0  0  0 
 21 41  1  0  0  0  0 
 22 23  2  0  0  0  0 
 22 42  1  0  0  0  0 
 23 43  1  0  0  0  0 
 24 44  1  0  0  0  0 
 24 45  1  0  0  0  0 
 24 46  1  0  0  0  0 
M  END
> <cdk:Title>
31076480

> <cdk:Remark>
null

> <PUBCHEM_COMPOUND_CID>
31076480

> <PUBCHEM_COMPOUND_CANONICALIZED>
1

> <PUBCHEM_CACTVS_COMPLEXITY>
419

> <PUBCHEM_CACTVS_HBOND_ACCEPTOR>
3

> <PUBCHEM_CACTVS_HBOND_DONOR>
2

> <PUBCHEM_CACTVS_ROTATABLE_BOND>
6

> <PUBCHEM_CACTVS_SUBSKEYS>
AAADceB7MAAAAAAAAAAAAAAAAAAAAAAAAAAwYAAAAAAAAAABQAAAHgAQAAAADQyBmAIyxoLABACIAiVSUACCCAAlIgAIiAEHbMgOJjLEtZuFMShk1BHY6YeYyQCeCAAAAAAAEAAQAAAAAAAgAAAAAAAAAA==

> <PUBCHEM_IUPAC_OPENEYE_NAME>
N-(2-methoxyphenyl)-4-[[(2S)-2-methylbutanoyl]amino]benzamide

> <PUBCHEM_IUPAC_CAS_NAME>
N-(2-methoxyphenyl)-4-[[(2S)-2-methyl-1-oxobutyl]amino]benzamide

> <PUBCHEM_IUPAC_NAME>
N-(2-methoxyphenyl)-4-[[(2S)-2-methylbutanoyl]amino]benzamide

> <PUBCHEM_IUPAC_SYSTEMATIC_NAME>
N-(2-methoxyphenyl)-4-[[(2S)-2-methylbutanoyl]amino]benzamide

> <PUBCHEM_IUPAC_TRADITIONAL_NAME>
N-(2-methoxyphenyl)-4-[[(2S)-2-methylbutanoyl]amino]benzamide

> <PUBCHEM_IUPAC_INCHI>
InChI=1S/C19H22N2O3/c1-4-13(2)18(22)20-15-11-9-14(10-12-15)19(23)21-16-7-5-6-8-17(16)24-3/h5-13H,4H2,1-3H3,(H,20,22)(H,21,23)/t13-/m0/s1

> <PUBCHEM_IUPAC_INCHIKEY>
RBKMILNAHWPHIT-ZDUSSCGKSA-N

> <PUBCHEM_XLOGP3_AA>
3.3

> <PUBCHEM_EXACT_MASS>
326.163043

> <PUBCHEM_MOLECULAR_FORMULA>
C19H22N2O3

> <PUBCHEM_MOLECULAR_WEIGHT>
326.38958

> <PUBCHEM_OPENEYE_CAN_SMILES>
CCC(C)C(=O)NC1=CC=C(C=C1)C(=O)NC2=CC=CC=C2OC

> <PUBCHEM_OPENEYE_ISO_SMILES>
CC[C@H](C)C(=O)NC1=CC=C(C=C1)C(=O)NC2=CC=CC=C2OC

> <PUBCHEM_CACTVS_TPSA>
67.4

> <PUBCHEM_MONOISOTOPIC_WEIGHT>
326.163043

> <PUBCHEM_TOTAL_CHARGE>
0

> <PUBCHEM_HEAVY_ATOM_COUNT>
24

> <PUBCHEM_ATOM_DEF_STEREO_COUNT>
1

> <PUBCHEM_ATOM_UDEF_STEREO_COUNT>
0

> <PUBCHEM_BOND_DEF_STEREO_COUNT>
0

> <PUBCHEM_BOND_UDEF_STEREO_COUNT>
0

> <PUBCHEM_ISOTOPIC_ATOM_COUNT>
0

> <PUBCHEM_COMPONENT_COUNT>
1

> <PUBCHEM_CACTVS_TAUTO_COUNT>
12

> <PUBCHEM_COORDINATE_TYPE>
1

> <PUBCHEM_BONDANNOTATIONS>
11  13  8

$$$$
