39022188
  CDK     1205141210

 62 64  0  0  0  0  0  0  0  0999 V2000
    9.9058    7.6783    0.0000 F   0  0  0  0  0  0  0  0  0  0  0  0
    4.5981   -4.6783    0.0000 O   0  0  0  0  0  0  0  0  0  0  0  0
    2.8660   -3.6783    0.0000 O   0  0  0  0  0  0  0  0  0  0  0  0
    3.7320   -0.1783    0.0000 O   0  0  0  0  0  0  0  0  0  0  0  0
    8.2788    4.0241    0.0000 N   0  0  0  0  0  0  0  0  0  0  0  0
    7.3007    3.8162    0.0000 N   0  0  0  0  0  0  0  0  0  0  0  0
    5.4641   -0.1783    0.0000 N   0  0  0  0  0  0  0  0  0  0  0  0
    9.7734    3.0536    0.0000 N   0  0  0  0  0  0  0  0  0  0  0  0
    8.5255    0.4587    0.0000 N   0  0  0  0  0  0  0  0  0  0  0  0
    6.3301    2.3217    0.0000 C   0  0  0  0  0  0  0  0  0  0  0  0
    6.3301    1.3217    0.0000 C   0  0  0  0  0  0  0  0  0  0  0  0
    7.1962    2.8217    0.0000 C   0  0  0  0  0  0  0  0  0  0  0  0
    5.4641    0.8217    0.0000 C   0  0  0  0  0  0  0  0  0  0  0  0
    8.1097    2.4150    0.0000 C   0  0  0  0  0  0  0  0  0  0  0  0
    8.7788    3.1581    0.0000 C   0  0  0  0  0  0  0  0  0  0  0  0
    8.6856    4.9377    0.0000 C   0  0  0  0  0  0  0  0  0  0  0  0
    4.5981   -0.6783    0.0000 C   0  0  0  0  0  0  0  0  0  0  0  0
    5.4641   -6.1783    0.0000 C   0  0  0  0  0  0  0  0  0  0  0  0
    4.5981   -1.6783    0.0000 C   0  0  0  0  0  0  0  0  0  0  0  0
    5.4641   -5.1783    0.0000 C   0  0  0  0  0  0  0  0  0  0  0  0
    6.3301   -6.6783    0.0000 C   0  0  0  0  0  0  0  0  0  0  0  0
    4.5981   -3.6783    0.0000 C   0  0  0  0  0  0  0  0  0  0  0  0
    3.7320   -2.1783    0.0000 C   0  0  0  0  0  0  0  0  0  0  0  0
    3.7320   -3.1783    0.0000 C   0  0  0  0  0  0  0  0  0  0  0  0
    5.4641   -2.1783    0.0000 C   0  0  0  0  0  0  0  0  0  0  0  0
    9.6801    5.0422    0.0000 C   0  0  0  0  0  0  0  0  0  0  0  0
    8.0978    5.7467    0.0000 C   0  0  0  0  0  0  0  0  0  0  0  0
    5.4641   -3.1783    0.0000 C   0  0  0  0  0  0  0  0  0  0  0  0
    8.3176    1.4368    0.0000 C   0  0  0  0  0  0  0  0  0  0  0  0
    6.3301   -7.6783    0.0000 C   0  0  0  0  0  0  0  0  0  0  0  0
   10.0868    5.9558    0.0000 C   0  0  0  0  0  0  0  0  0  0  0  0
    8.5045    6.6602    0.0000 C   0  0  0  0  0  0  0  0  0  0  0  0
    9.4990    6.7648    0.0000 C   0  0  0  0  0  0  0  0  0  0  0  0
    2.0000   -3.1783    0.0000 C   0  0  0  0  0  0  0  0  0  0  0  0
    6.1181    2.9043    0.0000 H   0  0  0  0  0  0  0  0  0  0  0  0
    5.7196    2.2140    0.0000 H   0  0  0  0  0  0  0  0  0  0  0  0
    6.5422    0.7391    0.0000 H   0  0  0  0  0  0  0  0  0  0  0  0
    6.9407    1.4293    0.0000 H   0  0  0  0  0  0  0  0  0  0  0  0
    5.2520    1.4043    0.0000 H   0  0  0  0  0  0  0  0  0  0  0  0
    4.8535    0.7140    0.0000 H   0  0  0  0  0  0  0  0  0  0  0  0
    6.0010   -0.4883    0.0000 H   0  0  0  0  0  0  0  0  0  0  0  0
    4.8535   -6.0706    0.0000 H   0  0  0  0  0  0  0  0  0  0  0  0
    5.2520   -6.7609    0.0000 H   0  0  0  0  0  0  0  0  0  0  0  0
    6.0747   -5.2860    0.0000 H   0  0  0  0  0  0  0  0  0  0  0  0
    5.6762   -4.5957    0.0000 H   0  0  0  0  0  0  0  0  0  0  0  0
    6.9407   -6.7860    0.0000 H   0  0  0  0  0  0  0  0  0  0  0  0
    6.5422   -6.0957    0.0000 H   0  0  0  0  0  0  0  0  0  0  0  0
    3.1951   -1.8683    0.0000 H   0  0  0  0  0  0  0  0  0  0  0  0
    6.0010   -1.8683    0.0000 H   0  0  0  0  0  0  0  0  0  0  0  0
   10.0255    2.4872    0.0000 H   0  0  0  0  0  0  0  0  0  0  0  0
   10.1378    3.5552    0.0000 H   0  0  0  0  0  0  0  0  0  0  0  0
   10.0445    4.5406    0.0000 H   0  0  0  0  0  0  0  0  0  0  0  0
    7.4812    5.6819    0.0000 H   0  0  0  0  0  0  0  0  0  0  0  0
    6.0010   -3.4883    0.0000 H   0  0  0  0  0  0  0  0  0  0  0  0
    5.7101   -7.6783    0.0000 H   0  0  0  0  0  0  0  0  0  0  0  0
    6.3301   -8.2983    0.0000 H   0  0  0  0  0  0  0  0  0  0  0  0
    6.9501   -7.6783    0.0000 H   0  0  0  0  0  0  0  0  0  0  0  0
   10.7034    6.0206    0.0000 H   0  0  0  0  0  0  0  0  0  0  0  0
    8.1401    7.1618    0.0000 H   0  0  0  0  0  0  0  0  0  0  0  0
    2.3100   -2.6414    0.0000 H   0  0  0  0  0  0  0  0  0  0  0  0
    1.4631   -2.8683    0.0000 H   0  0  0  0  0  0  0  0  0  0  0  0
    1.6900   -3.7152    0.0000 H   0  0  0  0  0  0  0  0  0  0  0  0
  1 33  1  0  0  0  0 
  2 20  1  0  0  0  0 
  2 22  1  0  0  0  0 
  3 24  1  0  0  0  0 
  3 34  1  0  0  0  0 
  4 17  2  0  0  0  0 
  5  6  1  0  0  0  0 
  5 15  1  0  0  0  0 
  5 16  1  0  0  0  0 
  6 12  2  0  0  0  0 
  7 13  1  0  0  0  0 
  7 17  1  0  0  0  0 
  7 41  1  0  0  0  0 
  8 15  1  0  0  0  0 
  8 50  1  0  0  0  0 
  8 51  1  0  0  0  0 
  9 29  3  0  0  0  0 
 10 11  1  0  0  0  0 
 10 12  1  0  0  0  0 
 10 35  1  0  0  0  0 
 10 36  1  0  0  0  0 
 11 13  1  0  0  0  0 
 11 37  1  0  0  0  0 
 11 38  1  0  0  0  0 
 12 14  1  0  0  0  0 
 13 39  1  0  0  0  0 
 13 40  1  0  0  0  0 
 14 15  2  0  0  0  0 
 14 29  1  0  0  0  0 
 16 26  2  0  0  0  0 
 16 27  1  0  0  0  0 
 17 19  1  0  0  0  0 
 18 20  1  0  0  0  0 
 18 21  1  0  0  0  0 
 18 42  1  0  0  0  0 
 18 43  1  0  0  0  0 
 19 23  2  0  0  0  0 
 19 25  1  0  0  0  0 
 20 44  1  0  0  0  0 
 20 45  1  0  0  0  0 
 21 30  1  0  0  0  0 
 21 46  1  0  0  0  0 
 21 47  1  0  0  0  0 
 22 24  2  0  0  0  0 
 22 28  1  0  0  0  0 
 23 24  1  0  0  0  0 
 23 48  1  0  0  0  0 
 25 28  2  0  0  0  0 
 25 49  1  0  0  0  0 
 26 31  1  0  0  0  0 
 26 52  1  0  0  0  0 
 27 32  2  0  0  0  0 
 27 53  1  0  0  0  0 
 28 54  1  0  0  0  0 
 30 55  1  0  0  0  0 
 30 56  1  0  0  0  0 
 30 57  1  0  0  0  0 
 31 33  2  0  0  0  0 
 31 58  1  0  0  0  0 
 32 33  1  0  0  0  0 
 32 59  1  0  0  0  0 
 34 60  1  0  0  0  0 
 34 61  1  0  0  0  0 
 34 62  1  0  0  0  0 
M  END
> <cdk:Title>
39022188

> <cdk:Remark>
null

> <PUBCHEM_COMPOUND_CID>
39022188

> <PUBCHEM_COMPOUND_CANONICALIZED>
1

> <PUBCHEM_CACTVS_COMPLEXITY>
681

> <PUBCHEM_CACTVS_HBOND_ACCEPTOR>
7

> <PUBCHEM_CACTVS_HBOND_DONOR>
2

> <PUBCHEM_CACTVS_ROTATABLE_BOND>
11

> <PUBCHEM_CACTVS_SUBSKEYS>
AAADceB7sQAAAAAAAAAAAAAAAAAAAWAAAAAwYAAAAAAAAAAB0AAAHwAYAAAADAzhng4z9pLIBAC6BydydACyDCMlIgAcmKE+7NiNpnLE9duGvSr03hPK6a+63BLOIAABAAAAQABAAAIAAACAAAAAAAAAAA==

> <PUBCHEM_IUPAC_OPENEYE_NAME>
N-[3-[5-amino-4-cyano-1-(4-fluorophenyl)pyrazol-3-yl]propyl]-4-butoxy-3-methoxy-benzamide

> <PUBCHEM_IUPAC_CAS_NAME>
N-[3-[5-amino-4-cyano-1-(4-fluorophenyl)-3-pyrazolyl]propyl]-4-butoxy-3-methoxybenzamide

> <PUBCHEM_IUPAC_NAME>
N-[3-[5-amino-4-cyano-1-(4-fluorophenyl)pyrazol-3-yl]propyl]-4-butoxy-3-methoxybenzamide

> <PUBCHEM_IUPAC_SYSTEMATIC_NAME>
N-[3-[5-azanyl-4-cyano-1-(4-fluorophenyl)pyrazol-3-yl]propyl]-4-butoxy-3-methoxy-benzamide

> <PUBCHEM_IUPAC_TRADITIONAL_NAME>
N-[3-[5-amino-4-cyano-1-(4-fluorophenyl)pyrazol-3-yl]propyl]-4-butoxy-3-methoxy-benzamide

> <PUBCHEM_IUPAC_INCHI>
InChI=1S/C25H28FN5O3/c1-3-4-14-34-22-12-7-17(15-23(22)33-2)25(32)29-13-5-6-21-20(16-27)24(28)31(30-21)19-10-8-18(26)9-11-19/h7-12,15H,3-6,13-14,28H2,1-2H3,(H,29,32)

> <PUBCHEM_IUPAC_INCHIKEY>
TZUUNNGXMFFPJM-UHFFFAOYSA-N

> <PUBCHEM_XLOGP3_AA>
4.7

> <PUBCHEM_EXACT_MASS>
465.217618

> <PUBCHEM_MOLECULAR_FORMULA>
C25H28FN5O3

> <PUBCHEM_MOLECULAR_WEIGHT>
465.519923

> <PUBCHEM_OPENEYE_CAN_SMILES>
CCCCOC1=C(C=C(C=C1)C(=O)NCCCC2=NN(C(=C2C#N)N)C3=CC=C(C=C3)F)OC

> <PUBCHEM_OPENEYE_ISO_SMILES>
CCCCOC1=C(C=C(C=C1)C(=O)NCCCC2=NN(C(=C2C#N)N)C3=CC=C(C=C3)F)OC

> <PUBCHEM_CACTVS_TPSA>
115

> <PUBCHEM_MONOISOTOPIC_WEIGHT>
465.217618

> <PUBCHEM_TOTAL_CHARGE>
0

> <PUBCHEM_HEAVY_ATOM_COUNT>
34

> <PUBCHEM_ATOM_DEF_STEREO_COUNT>
0

> <PUBCHEM_ATOM_UDEF_STEREO_COUNT>
0

> <PUBCHEM_BOND_DEF_STEREO_COUNT>
0

> <PUBCHEM_BOND_UDEF_STEREO_COUNT>
0

> <PUBCHEM_ISOTOPIC_ATOM_COUNT>
0

> <PUBCHEM_COMPONENT_COUNT>
1

> <PUBCHEM_CACTVS_TAUTO_COUNT>
6

> <PUBCHEM_COORDINATE_TYPE>
1

> <PUBCHEM_BONDANNOTATIONS>
12  14  8

$$$$
39022188
  CDK     1205141211

 62 64  0  0  0  0  0  0  0  0999 V2000
    9.9058    7.6783    0.0000 F   0  0  0  0  0  0  0  0  0  0  0  0
    4.5981   -4.6783    0.0000 O   0  0  0  0  0  0  0  0  0  0  0  0
    2.8660   -3.6783    0.0000 O   0  0  0  0  0  0  0  0  0  0  0  0
    3.7320   -0.1783    0.0000 O   0  0  0  0  0  0  0  0  0  0  0  0
    8.2788    4.0241    0.0000 N   0  0  0  0  0  0  0  0  0  0  0  0
    7.3007    3.8162    0.0000 N   0  0  0  0  0  0  0  0  0  0  0  0
    5.4641   -0.1783    0.0000 N   0  0  0  0  0  0  0  0  0  0  0  0
    9.7734    3.0536    0.0000 N   0  0  0  0  0  0  0  0  0  0  0  0
    8.5255    0.4587    0.0000 N   0  0  0  0  0  0  0  0  0  0  0  0
    6.3301    2.3217    0.0000 C   0  0  0  0  0  0  0  0  0  0  0  0
    6.3301    1.3217    0.0000 C   0  0  0  0  0  0  0  0  0  0  0  0
    7.1962    2.8217    0.0000 C   0  0  0  0  0  0  0  0  0  0  0  0
    5.4641    0.8217    0.0000 C   0  0  0  0  0  0  0  0  0  0  0  0
    8.1097    2.4150    0.0000 C   0  0  0  0  0  0  0  0  0  0  0  0
    8.7788    3.1581    0.0000 C   0  0  0  0  0  0  0  0  0  0  0  0
    8.6856    4.9377    0.0000 C   0  0  0  0  0  0  0  0  0  0  0  0
    4.5981   -0.6783    0.0000 C   0  0  0  0  0  0  0  0  0  0  0  0
    5.4641   -6.1783    0.0000 C   0  0  0  0  0  0  0  0  0  0  0  0
    4.5981   -1.6783    0.0000 C   0  0  0  0  0  0  0  0  0  0  0  0
    5.4641   -5.1783    0.0000 C   0  0  0  0  0  0  0  0  0  0  0  0
    6.3301   -6.6783    0.0000 C   0  0  0  0  0  0  0  0  0  0  0  0
    4.5981   -3.6783    0.0000 C   0  0  0  0  0  0  0  0  0  0  0  0
    3.7320   -2.1783    0.0000 C   0  0  0  0  0  0  0  0  0  0  0  0
    3.7320   -3.1783    0.0000 C   0  0  0  0  0  0  0  0  0  0  0  0
    5.4641   -2.1783    0.0000 C   0  0  0  0  0  0  0  0  0  0  0  0
    9.6801    5.0422    0.0000 C   0  0  0  0  0  0  0  0  0  0  0  0
    8.0978    5.7467    0.0000 C   0  0  0  0  0  0  0  0  0  0  0  0
    5.4641   -3.1783    0.0000 C   0  0  0  0  0  0  0  0  0  0  0  0
    8.3176    1.4368    0.0000 C   0  0  0  0  0  0  0  0  0  0  0  0
    6.3301   -7.6783    0.0000 C   0  0  0  0  0  0  0  0  0  0  0  0
   10.0868    5.9558    0.0000 C   0  0  0  0  0  0  0  0  0  0  0  0
    8.5045    6.6602    0.0000 C   0  0  0  0  0  0  0  0  0  0  0  0
    9.4990    6.7648    0.0000 C   0  0  0  0  0  0  0  0  0  0  0  0
    2.0000   -3.1783    0.0000 C   0  0  0  0  0  0  0  0  0  0  0  0
    6.1181    2.9043    0.0000 H   0  0  0  0  0  0  0  0  0  0  0  0
    5.7196    2.2140    0.0000 H   0  0  0  0  0  0  0  0  0  0  0  0
    6.5422    0.7391    0.0000 H   0  0  0  0  0  0  0  0  0  0  0  0
    6.9407    1.4293    0.0000 H   0  0  0  0  0  0  0  0  0  0  0  0
    5.2520    1.4043    0.0000 H   0  0  0  0  0  0  0  0  0  0  0  0
    4.8535    0.7140    0.0000 H   0  0  0  0  0  0  0  0  0  0  0  0
    6.0010   -0.4883    0.0000 H   0  0  0  0  0  0  0  0  0  0  0  0
    4.8535   -6.0706    0.0000 H   0  0  0  0  0  0  0  0  0  0  0  0
    5.2520   -6.7609    0.0000 H   0  0  0  0  0  0  0  0  0  0  0  0
    6.0747   -5.2860    0.0000 H   0  0  0  0  0  0  0  0  0  0  0  0
    5.6762   -4.5957    0.0000 H   0  0  0  0  0  0  0  0  0  0  0  0
    6.9407   -6.7860    0.0000 H   0  0  0  0  0  0  0  0  0  0  0  0
    6.5422   -6.0957    0.0000 H   0  0  0  0  0  0  0  0  0  0  0  0
    3.1951   -1.8683    0.0000 H   0  0  0  0  0  0  0  0  0  0  0  0
    6.0010   -1.8683    0.0000 H   0  0  0  0  0  0  0  0  0  0  0  0
   10.0255    2.4872    0.0000 H   0  0  0  0  0  0  0  0  0  0  0  0
   10.1378    3.5552    0.0000 H   0  0  0  0  0  0  0  0  0  0  0  0
   10.0445    4.5406    0.0000 H   0  0  0  0  0  0  0  0  0  0  0  0
    7.4812    5.6819    0.0000 H   0  0  0  0  0  0  0  0  0  0  0  0
    6.0010   -3.4883    0.0000 H   0  0  0  0  0  0  0  0  0  0  0  0
    5.7101   -7.6783    0.0000 H   0  0  0  0  0  0  0  0  0  0  0  0
    6.3301   -8.2983    0.0000 H   0  0  0  0  0  0  0  0  0  0  0  0
    6.9501   -7.6783    0.0000 H   0  0  0  0  0  0  0  0  0  0  0  0
   10.7034    6.0206    0.0000 H   0  0  0  0  0  0  0  0  0  0  0  0
    8.1401    7.1618    0.0000 H   0  0  0  0  0  0  0  0  0  0  0  0
    2.3100   -2.6414    0.0000 H   0  0  0  0  0  0  0  0  0  0  0  0
    1.4631   -2.8683    0.0000 H   0  0  0  0  0  0  0  0  0  0  0  0
    1.6900   -3.7152    0.0000 H   0  0  0  0  0  0  0  0  0  0  0  0
  1 33  1  0  0  0  0 
  2 20  1  0  0  0  0 
  2 22  1  0  0  0  0 
  3 24  1  0  0  0  0 
  3 34  1  0  0  0  0 
  4 17  2  0  0  0  0 
  5  6  1  0  0  0  0 
  5 15  1  0  0  0  0 
  5 16  1  0  0  0  0 
  6 12  2  0  0  0  0 
  7 13  1  0  0  0  0 
  7 17  1  0  0  0  0 
  7 41  1  0  0  0  0 
  8 15  1  0  0  0  0 
  8 50  1  0  0  0  0 
  8 51  1  0  0  0  0 
  9 29  3  0  0  0  0 
 10 11  1  0  0  0  0 
 10 12  1  0  0  0  0 
 10 35  1  0  0  0  0 
 10 36  1  0  0  0  0 
 11 13  1  0  0  0  0 
 11 37  1  0  0  0  0 
 11 38  1  0  0  0  0 
 12 14  1  0  0  0  0 
 13 39  1  0  0  0  0 
 13 40  1  0  0  0  0 
 14 15  2  0  0  0  0 
 14 29  1  0  0  0  0 
 16 26  2  0  0  0  0 
 16 27  1  0  0  0  0 
 17 19  1  0  0  0  0 
 18 20  1  0  0  0  0 
 18 21  1  0  0  0  0 
 18 42  1  0  0  0  0 
 18 43  1  0  0  0  0 
 19 23  2  0  0  0  0 
 19 25  1  0  0  0  0 
 20 44  1  0  0  0  0 
 20 45  1  0  0  0  0 
 21 30  1  0  0  0  0 
 21 46  1  0  0  0  0 
 21 47  1  0  0  0  0 
 22 24  2  0  0  0  0 
 22 28  1  0  0  0  0 
 23 24  1  0  0  0  0 
 23 48  1  0  0  0  0 
 25 28  2  0  0  0  0 
 25 49  1  0  0  0  0 
 26 31  1  0  0  0  0 
 26 52  1  0  0  0  0 
 27 32  2  0  0  0  0 
 27 53  1  0  0  0  0 
 28 54  1  0  0  0  0 
 30 55  1  0  0  0  0 
 30 56  1  0  0  0  0 
 30 57  1  0  0  0  0 
 31 33  2  0  0  0  0 
 31 58  1  0  0  0  0 
 32 33  1  0  0  0  0 
 32 59  1  0  0  0  0 
 34 60  1  0  0  0  0 
 34 61  1  0  0  0  0 
 34 62  1  0  0  0  0 
M  END
> <cdk:Title>
39022188

> <cdk:Remark>
null

> <PUBCHEM_COMPOUND_CID>
39022188

> <PUBCHEM_COMPOUND_CANONICALIZED>
1

> <PUBCHEM_CACTVS_COMPLEXITY>
681

> <PUBCHEM_CACTVS_HBOND_ACCEPTOR>
7

> <PUBCHEM_CACTVS_HBOND_DONOR>
2

> <PUBCHEM_CACTVS_ROTATABLE_BOND>
11

> <PUBCHEM_CACTVS_SUBSKEYS>
AAADceB7sQAAAAAAAAAAAAAAAAAAAWAAAAAwYAAAAAAAAAAB0AAAHwAYAAAADAzhng4z9pLIBAC6BydydACyDCMlIgAcmKE+7NiNpnLE9duGvSr03hPK6a+63BLOIAABAAAAQABAAAIAAACAAAAAAAAAAA==

> <PUBCHEM_IUPAC_OPENEYE_NAME>
N-[3-[5-amino-4-cyano-1-(4-fluorophenyl)pyrazol-3-yl]propyl]-4-butoxy-3-methoxy-benzamide

> <PUBCHEM_IUPAC_CAS_NAME>
N-[3-[5-amino-4-cyano-1-(4-fluorophenyl)-3-pyrazolyl]propyl]-4-butoxy-3-methoxybenzamide

> <PUBCHEM_IUPAC_NAME>
N-[3-[5-amino-4-cyano-1-(4-fluorophenyl)pyrazol-3-yl]propyl]-4-butoxy-3-methoxybenzamide

> <PUBCHEM_IUPAC_SYSTEMATIC_NAME>
N-[3-[5-azanyl-4-cyano-1-(4-fluorophenyl)pyrazol-3-yl]propyl]-4-butoxy-3-methoxy-benzamide

> <PUBCHEM_IUPAC_TRADITIONAL_NAME>
N-[3-[5-amino-4-cyano-1-(4-fluorophenyl)pyrazol-3-yl]propyl]-4-butoxy-3-methoxy-benzamide

> <PUBCHEM_IUPAC_INCHI>
InChI=1S/C25H28FN5O3/c1-3-4-14-34-22-12-7-17(15-23(22)33-2)25(32)29-13-5-6-21-20(16-27)24(28)31(30-21)19-10-8-18(26)9-11-19/h7-12,15H,3-6,13-14,28H2,1-2H3,(H,29,32)

> <PUBCHEM_IUPAC_INCHIKEY>
TZUUNNGXMFFPJM-UHFFFAOYSA-N

> <PUBCHEM_XLOGP3_AA>
4.7

> <PUBCHEM_EXACT_MASS>
465.217618

> <PUBCHEM_MOLECULAR_FORMULA>
C25H28FN5O3

> <PUBCHEM_MOLECULAR_WEIGHT>
465.519923

> <PUBCHEM_OPENEYE_CAN_SMILES>
CCCCOC1=C(C=C(C=C1)C(=O)NCCCC2=NN(C(=C2C#N)N)C3=CC=C(C=C3)F)OC

> <PUBCHEM_OPENEYE_ISO_SMILES>
CCCCOC1=C(C=C(C=C1)C(=O)NCCCC2=NN(C(=C2C#N)N)C3=CC=C(C=C3)F)OC

> <PUBCHEM_CACTVS_TPSA>
115

> <PUBCHEM_MONOISOTOPIC_WEIGHT>
465.217618

> <PUBCHEM_TOTAL_CHARGE>
0

> <PUBCHEM_HEAVY_ATOM_COUNT>
34

> <PUBCHEM_ATOM_DEF_STEREO_COUNT>
0

> <PUBCHEM_ATOM_UDEF_STEREO_COUNT>
0

> <PUBCHEM_BOND_DEF_STEREO_COUNT>
0

> <PUBCHEM_BOND_UDEF_STEREO_COUNT>
0

> <PUBCHEM_ISOTOPIC_ATOM_COUNT>
0

> <PUBCHEM_COMPONENT_COUNT>
1

> <PUBCHEM_CACTVS_TAUTO_COUNT>
6

> <PUBCHEM_COORDINATE_TYPE>
1

> <PUBCHEM_BONDANNOTATIONS>
12  14  8

$$$$
