43872589
  CDK     1205141210

 61 63  0  0  0  0  0  0  0  0999 V2000
    5.4641   -2.0000    0.0000 S   0  0  0  0  0  0  0  0  0  0  0  0
    2.0000    3.0000    0.0000 F   0  0  0  0  0  0  0  0  0  0  0  0
    3.7320    5.0000    0.0000 F   0  0  0  0  0  0  0  0  0  0  0  0
    4.7320    4.0000    0.0000 F   0  0  0  0  0  0  0  0  0  0  0  0
    2.7320    4.0000    0.0000 F   0  0  0  0  0  0  0  0  0  0  0  0
    5.9641   -2.8660    0.0000 O   0  0  0  0  0  0  0  0  0  0  0  0
    4.9641   -1.1340    0.0000 O   0  0  0  0  0  0  0  0  0  0  0  0
    3.7320   -1.0000    0.0000 O   0  0  0  0  0  0  0  0  0  0  0  0
    9.7942   -3.5000    0.0000 O   0  0  0  0  0  0  0  0  0  0  0  0
    4.5981   -0.5000    0.0000 O   0  0  0  0  0  0  0  0  0  0  0  0
    6.3301   -1.5000    0.0000 N   0  0  3  0  0  0  0  0  0  0  0  0
    5.4641    1.0000    0.0000 N   0  0  0  0  0  0  0  0  0  0  0  0
    4.5981   -2.5000    0.0000 C   0  0  0  0  0  0  0  0  0  0  0  0
    6.3301   -0.5000    0.0000 C   0  0  0  0  0  0  0  0  0  0  0  0
    7.1962   -2.0000    0.0000 C   0  0  0  0  0  0  0  0  0  0  0  0
    3.7320   -2.0000    0.0000 C   0  0  0  0  0  0  0  0  0  0  0  0
    4.5981   -3.5000    0.0000 C   0  0  0  0  0  0  0  0  0  0  0  0
    3.7320   -4.0000    0.0000 C   0  0  0  0  0  0  0  0  0  0  0  0
    5.4641    0.0000    0.0000 C   0  0  0  0  0  0  0  0  0  0  0  0
    7.1962   -3.0000    0.0000 C   0  0  0  0  0  0  0  0  0  0  0  0
    8.0622   -1.5000    0.0000 C   0  0  0  0  0  0  0  0  0  0  0  0
    2.8660   -2.5000    0.0000 C   0  0  0  0  0  0  0  0  0  0  0  0
    2.8660   -3.5000    0.0000 C   0  0  0  0  0  0  0  0  0  0  0  0
    8.0622   -3.5000    0.0000 C   0  0  0  0  0  0  0  0  0  0  0  0
    8.9282   -2.0000    0.0000 C   0  0  0  0  0  0  0  0  0  0  0  0
    8.9282   -3.0000    0.0000 C   0  0  0  0  0  0  0  0  0  0  0  0
    3.7320   -5.0000    0.0000 C   0  0  0  0  0  0  0  0  0  0  0  0
    4.5981    1.5000    0.0000 C   0  0  0  0  0  0  0  0  0  0  0  0
    4.5981    2.5000    0.0000 C   0  0  0  0  0  0  0  0  0  0  0  0
    3.7320    1.0000    0.0000 C   0  0  0  0  0  0  0  0  0  0  0  0
    3.7320    3.0000    0.0000 C   0  0  0  0  0  0  0  0  0  0  0  0
    2.8660   -0.5000    0.0000 C   0  0  0  0  0  0  0  0  0  0  0  0
    2.8660    1.5000    0.0000 C   0  0  0  0  0  0  0  0  0  0  0  0
    2.8660    2.5000    0.0000 C   0  0  0  0  0  0  0  0  0  0  0  0
   10.6603   -3.0000    0.0000 C   0  0  0  0  0  0  0  0  0  0  0  0
    3.7320    4.0000    0.0000 C   0  0  0  0  0  0  0  0  0  0  0  0
   11.5263   -3.5000    0.0000 C   0  0  0  0  0  0  0  0  0  0  0  0
    6.9407   -0.6077    0.0000 H   0  0  0  0  0  0  0  0  0  0  0  0
    6.5422    0.0826    0.0000 H   0  0  0  0  0  0  0  0  0  0  0  0
    5.1350   -3.8100    0.0000 H   0  0  0  0  0  0  0  0  0  0  0  0
    6.6592   -3.3100    0.0000 H   0  0  0  0  0  0  0  0  0  0  0  0
    8.0622   -0.8800    0.0000 H   0  0  0  0  0  0  0  0  0  0  0  0
    2.3291   -2.1900    0.0000 H   0  0  0  0  0  0  0  0  0  0  0  0
    2.3291   -3.8100    0.0000 H   0  0  0  0  0  0  0  0  0  0  0  0
    8.0622   -4.1200    0.0000 H   0  0  0  0  0  0  0  0  0  0  0  0
    9.4651   -1.6900    0.0000 H   0  0  0  0  0  0  0  0  0  0  0  0
    6.0010    1.3100    0.0000 H   0  0  0  0  0  0  0  0  0  0  0  0
    3.1120   -5.0000    0.0000 H   0  0  0  0  0  0  0  0  0  0  0  0
    3.7320   -5.6200    0.0000 H   0  0  0  0  0  0  0  0  0  0  0  0
    4.3520   -5.0000    0.0000 H   0  0  0  0  0  0  0  0  0  0  0  0
    5.1350    2.8100    0.0000 H   0  0  0  0  0  0  0  0  0  0  0  0
    3.7320    0.3800    0.0000 H   0  0  0  0  0  0  0  0  0  0  0  0
    3.1760    0.0369    0.0000 H   0  0  0  0  0  0  0  0  0  0  0  0
    2.3291   -0.1900    0.0000 H   0  0  0  0  0  0  0  0  0  0  0  0
    2.5560   -1.0369    0.0000 H   0  0  0  0  0  0  0  0  0  0  0  0
    2.3291    1.1900    0.0000 H   0  0  0  0  0  0  0  0  0  0  0  0
   11.0588   -2.5250    0.0000 H   0  0  0  0  0  0  0  0  0  0  0  0
   10.2617   -2.5250    0.0000 H   0  0  0  0  0  0  0  0  0  0  0  0
   11.2163   -4.0369    0.0000 H   0  0  0  0  0  0  0  0  0  0  0  0
   12.0632   -3.8100    0.0000 H   0  0  0  0  0  0  0  0  0  0  0  0
   11.8363   -2.9631    0.0000 H   0  0  0  0  0  0  0  0  0  0  0  0
  1  6  2  0  0  0  0 
  1  7  2  0  0  0  0 
  1 11  1  0  0  0  0 
  1 13  1  0  0  0  0 
  2 34  1  0  0  0  0 
  3 36  1  0  0  0  0 
  4 36  1  0  0  0  0 
  5 36  1  0  0  0  0 
  8 16  1  0  0  0  0 
  8 32  1  0  0  0  0 
  9 26  1  0  0  0  0 
  9 35  1  0  0  0  0 
 10 19  2  0  0  0  0 
 11 14  1  0  0  0  0 
 11 15  1  0  0  0  0 
 12 19  1  0  0  0  0 
 12 28  1  0  0  0  0 
 12 47  1  0  0  0  0 
 13 16  2  0  0  0  0 
 13 17  1  0  0  0  0 
 14 19  1  0  0  0  0 
 14 38  1  0  0  0  0 
 14 39  1  0  0  0  0 
 15 20  2  0  0  0  0 
 15 21  1  0  0  0  0 
 16 22  1  0  0  0  0 
 17 18  2  0  0  0  0 
 17 40  1  0  0  0  0 
 18 23  1  0  0  0  0 
 18 27  1  0  0  0  0 
 20 24  1  0  0  0  0 
 20 41  1  0  0  0  0 
 21 25  2  0  0  0  0 
 21 42  1  0  0  0  0 
 22 23  2  0  0  0  0 
 22 43  1  0  0  0  0 
 23 44  1  0  0  0  0 
 24 26  2  0  0  0  0 
 24 45  1  0  0  0  0 
 25 26  1  0  0  0  0 
 25 46  1  0  0  0  0 
 27 48  1  0  0  0  0 
 27 49  1  0  0  0  0 
 27 50  1  0  0  0  0 
 28 29  2  0  0  0  0 
 28 30  1  0  0  0  0 
 29 31  1  0  0  0  0 
 29 51  1  0  0  0  0 
 30 33  2  0  0  0  0 
 30 52  1  0  0  0  0 
 31 34  2  0  0  0  0 
 31 36  1  0  0  0  0 
 32 53  1  0  0  0  0 
 32 54  1  0  0  0  0 
 32 55  1  0  0  0  0 
 33 34  1  0  0  0  0 
 33 56  1  0  0  0  0 
 35 37  1  0  0  0  0 
 35 57  1  0  0  0  0 
 35 58  1  0  0  0  0 
 37 59  1  0  0  0  0 
 37 60  1  0  0  0  0 
 37 61  1  0  0  0  0 
M  END
> <cdk:Title>
43872589

> <cdk:Remark>
null

> <PUBCHEM_COMPOUND_CID>
43872589

> <PUBCHEM_COMPOUND_CANONICALIZED>
1

> <PUBCHEM_CACTVS_COMPLEXITY>
845

> <PUBCHEM_CACTVS_HBOND_ACCEPTOR>
10

> <PUBCHEM_CACTVS_HBOND_DONOR>
1

> <PUBCHEM_CACTVS_ROTATABLE_BOND>
9

> <PUBCHEM_CACTVS_SUBSKEYS>
AAADceB7OcBAAAAAAAAAAAAAAAAAAAAAAAAwYMAAAAAAAAABUAAAHwQQQAAADAzh2B4yx4LABAKIAiVSUHDCCBAhIgAIiBqObIgMZiLEsbuWOCjk1BHI6AewwAAOIEAAwAAAIABAgAGAAABAAAAAAAAAAA==

> <PUBCHEM_IUPAC_OPENEYE_NAME>
2-(4-ethoxy-N-(2-methoxy-5-methyl-phenyl)sulfonyl-anilino)-N-[4-fluoro-3-(trifluoromethyl)phenyl]acetamide

> <PUBCHEM_IUPAC_CAS_NAME>
2-(4-ethoxy-N-(2-methoxy-5-methylphenyl)sulfonylanilino)-N-[4-fluoro-3-(trifluoromethyl)phenyl]acetamide

> <PUBCHEM_IUPAC_NAME>
2-(4-ethoxy-N-(2-methoxy-5-methylphenyl)sulfonylanilino)-N-[4-fluoro-3-(trifluoromethyl)phenyl]acetamide

> <PUBCHEM_IUPAC_SYSTEMATIC_NAME>
2-[(4-ethoxyphenyl)-(2-methoxy-5-methyl-phenyl)sulfonyl-amino]-N-[4-fluoranyl-3-(trifluoromethyl)phenyl]ethanamide

> <PUBCHEM_IUPAC_TRADITIONAL_NAME>
2-(4-ethoxy-N-(2-methoxy-5-methyl-phenyl)sulfonyl-anilino)-N-[4-fluoro-3-(trifluoromethyl)phenyl]acetamide

> <PUBCHEM_IUPAC_INCHI>
InChI=1S/C25H24F4N2O5S/c1-4-36-19-9-7-18(8-10-19)31(37(33,34)23-13-16(2)5-12-22(23)35-3)15-24(32)30-17-6-11-21(26)20(14-17)25(27,28)29/h5-14H,4,15H2,1-3H3,(H,30,32)

> <PUBCHEM_IUPAC_INCHIKEY>
DFIMVAOYEVHWLE-UHFFFAOYSA-N

> <PUBCHEM_XLOGP3_AA>
5.2

> <PUBCHEM_EXACT_MASS>
540.134206

> <PUBCHEM_MOLECULAR_FORMULA>
C25H24F4N2O5S

> <PUBCHEM_MOLECULAR_WEIGHT>
540.527073

> <PUBCHEM_OPENEYE_CAN_SMILES>
CCOC1=CC=C(C=C1)N(CC(=O)NC2=CC(=C(C=C2)F)C(F)(F)F)S(=O)(=O)C3=C(C=CC(=C3)C)OC

> <PUBCHEM_OPENEYE_ISO_SMILES>
CCOC1=CC=C(C=C1)N(CC(=O)NC2=CC(=C(C=C2)F)C(F)(F)F)S(=O)(=O)C3=C(C=CC(=C3)C)OC

> <PUBCHEM_CACTVS_TPSA>
93.3

> <PUBCHEM_MONOISOTOPIC_WEIGHT>
540.134206

> <PUBCHEM_TOTAL_CHARGE>
0

> <PUBCHEM_HEAVY_ATOM_COUNT>
37

> <PUBCHEM_ATOM_DEF_STEREO_COUNT>
0

> <PUBCHEM_ATOM_UDEF_STEREO_COUNT>
0

> <PUBCHEM_BOND_DEF_STEREO_COUNT>
0

> <PUBCHEM_BOND_UDEF_STEREO_COUNT>
0

> <PUBCHEM_ISOTOPIC_ATOM_COUNT>
0

> <PUBCHEM_COMPONENT_COUNT>
1

> <PUBCHEM_CACTVS_TAUTO_COUNT>
3

> <PUBCHEM_COORDINATE_TYPE>
1

> <PUBCHEM_BONDANNOTATIONS>
13  16  8

$$$$
43872589
  CDK     1205141211

 61 63  0  0  0  0  0  0  0  0999 V2000
    5.4641   -2.0000    0.0000 S   0  0  0  0  0  0  0  0  0  0  0  0
    2.0000    3.0000    0.0000 F   0  0  0  0  0  0  0  0  0  0  0  0
    3.7320    5.0000    0.0000 F   0  0  0  0  0  0  0  0  0  0  0  0
    4.7320    4.0000    0.0000 F   0  0  0  0  0  0  0  0  0  0  0  0
    2.7320    4.0000    0.0000 F   0  0  0  0  0  0  0  0  0  0  0  0
    5.9641   -2.8660    0.0000 O   0  0  0  0  0  0  0  0  0  0  0  0
    4.9641   -1.1340    0.0000 O   0  0  0  0  0  0  0  0  0  0  0  0
    3.7320   -1.0000    0.0000 O   0  0  0  0  0  0  0  0  0  0  0  0
    9.7942   -3.5000    0.0000 O   0  0  0  0  0  0  0  0  0  0  0  0
    4.5981   -0.5000    0.0000 O   0  0  0  0  0  0  0  0  0  0  0  0
    6.3301   -1.5000    0.0000 N   0  0  3  0  0  0  0  0  0  0  0  0
    5.4641    1.0000    0.0000 N   0  0  0  0  0  0  0  0  0  0  0  0
    4.5981   -2.5000    0.0000 C   0  0  0  0  0  0  0  0  0  0  0  0
    6.3301   -0.5000    0.0000 C   0  0  0  0  0  0  0  0  0  0  0  0
    7.1962   -2.0000    0.0000 C   0  0  0  0  0  0  0  0  0  0  0  0
    3.7320   -2.0000    0.0000 C   0  0  0  0  0  0  0  0  0  0  0  0
    4.5981   -3.5000    0.0000 C   0  0  0  0  0  0  0  0  0  0  0  0
    3.7320   -4.0000    0.0000 C   0  0  0  0  0  0  0  0  0  0  0  0
    5.4641    0.0000    0.0000 C   0  0  0  0  0  0  0  0  0  0  0  0
    7.1962   -3.0000    0.0000 C   0  0  0  0  0  0  0  0  0  0  0  0
    8.0622   -1.5000    0.0000 C   0  0  0  0  0  0  0  0  0  0  0  0
    2.8660   -2.5000    0.0000 C   0  0  0  0  0  0  0  0  0  0  0  0
    2.8660   -3.5000    0.0000 C   0  0  0  0  0  0  0  0  0  0  0  0
    8.0622   -3.5000    0.0000 C   0  0  0  0  0  0  0  0  0  0  0  0
    8.9282   -2.0000    0.0000 C   0  0  0  0  0  0  0  0  0  0  0  0
    8.9282   -3.0000    0.0000 C   0  0  0  0  0  0  0  0  0  0  0  0
    3.7320   -5.0000    0.0000 C   0  0  0  0  0  0  0  0  0  0  0  0
    4.5981    1.5000    0.0000 C   0  0  0  0  0  0  0  0  0  0  0  0
    4.5981    2.5000    0.0000 C   0  0  0  0  0  0  0  0  0  0  0  0
    3.7320    1.0000    0.0000 C   0  0  0  0  0  0  0  0  0  0  0  0
    3.7320    3.0000    0.0000 C   0  0  0  0  0  0  0  0  0  0  0  0
    2.8660   -0.5000    0.0000 C   0  0  0  0  0  0  0  0  0  0  0  0
    2.8660    1.5000    0.0000 C   0  0  0  0  0  0  0  0  0  0  0  0
    2.8660    2.5000    0.0000 C   0  0  0  0  0  0  0  0  0  0  0  0
   10.6603   -3.0000    0.0000 C   0  0  0  0  0  0  0  0  0  0  0  0
    3.7320    4.0000    0.0000 C   0  0  0  0  0  0  0  0  0  0  0  0
   11.5263   -3.5000    0.0000 C   0  0  0  0  0  0  0  0  0  0  0  0
    6.9407   -0.6077    0.0000 H   0  0  0  0  0  0  0  0  0  0  0  0
    6.5422    0.0826    0.0000 H   0  0  0  0  0  0  0  0  0  0  0  0
    5.1350   -3.8100    0.0000 H   0  0  0  0  0  0  0  0  0  0  0  0
    6.6592   -3.3100    0.0000 H   0  0  0  0  0  0  0  0  0  0  0  0
    8.0622   -0.8800    0.0000 H   0  0  0  0  0  0  0  0  0  0  0  0
    2.3291   -2.1900    0.0000 H   0  0  0  0  0  0  0  0  0  0  0  0
    2.3291   -3.8100    0.0000 H   0  0  0  0  0  0  0  0  0  0  0  0
    8.0622   -4.1200    0.0000 H   0  0  0  0  0  0  0  0  0  0  0  0
    9.4651   -1.6900    0.0000 H   0  0  0  0  0  0  0  0  0  0  0  0
    6.0010    1.3100    0.0000 H   0  0  0  0  0  0  0  0  0  0  0  0
    3.1120   -5.0000    0.0000 H   0  0  0  0  0  0  0  0  0  0  0  0
    3.7320   -5.6200    0.0000 H   0  0  0  0  0  0  0  0  0  0  0  0
    4.3520   -5.0000    0.0000 H   0  0  0  0  0  0  0  0  0  0  0  0
    5.1350    2.8100    0.0000 H   0  0  0  0  0  0  0  0  0  0  0  0
    3.7320    0.3800    0.0000 H   0  0  0  0  0  0  0  0  0  0  0  0
    3.1760    0.0369    0.0000 H   0  0  0  0  0  0  0  0  0  0  0  0
    2.3291   -0.1900    0.0000 H   0  0  0  0  0  0  0  0  0  0  0  0
    2.5560   -1.0369    0.0000 H   0  0  0  0  0  0  0  0  0  0  0  0
    2.3291    1.1900    0.0000 H   0  0  0  0  0  0  0  0  0  0  0  0
   11.0588   -2.5250    0.0000 H   0  0  0  0  0  0  0  0  0  0  0  0
   10.2617   -2.5250    0.0000 H   0  0  0  0  0  0  0  0  0  0  0  0
   11.2163   -4.0369    0.0000 H   0  0  0  0  0  0  0  0  0  0  0  0
   12.0632   -3.8100    0.0000 H   0  0  0  0  0  0  0  0  0  0  0  0
   11.8363   -2.9631    0.0000 H   0  0  0  0  0  0  0  0  0  0  0  0
  1  6  2  0  0  0  0 
  1  7  2  0  0  0  0 
  1 11  1  0  0  0  0 
  1 13  1  0  0  0  0 
  2 34  1  0  0  0  0 
  3 36  1  0  0  0  0 
  4 36  1  0  0  0  0 
  5 36  1  0  0  0  0 
  8 16  1  0  0  0  0 
  8 32  1  0  0  0  0 
  9 26  1  0  0  0  0 
  9 35  1  0  0  0  0 
 10 19  2  0  0  0  0 
 11 14  1  0  0  0  0 
 11 15  1  0  0  0  0 
 12 19  1  0  0  0  0 
 12 28  1  0  0  0  0 
 12 47  1  0  0  0  0 
 13 16  2  0  0  0  0 
 13 17  1  0  0  0  0 
 14 19  1  0  0  0  0 
 14 38  1  0  0  0  0 
 14 39  1  0  0  0  0 
 15 20  2  0  0  0  0 
 15 21  1  0  0  0  0 
 16 22  1  0  0  0  0 
 17 18  2  0  0  0  0 
 17 40  1  0  0  0  0 
 18 23  1  0  0  0  0 
 18 27  1  0  0  0  0 
 20 24  1  0  0  0  0 
 20 41  1  0  0  0  0 
 21 25  2  0  0  0  0 
 21 42  1  0  0  0  0 
 22 23  2  0  0  0  0 
 22 43  1  0  0  0  0 
 23 44  1  0  0  0  0 
 24 26  2  0  0  0  0 
 24 45  1  0  0  0  0 
 25 26  1  0  0  0  0 
 25 46  1  0  0  0  0 
 27 48  1  0  0  0  0 
 27 49  1  0  0  0  0 
 27 50  1  0  0  0  0 
 28 29  2  0  0  0  0 
 28 30  1  0  0  0  0 
 29 31  1  0  0  0  0 
 29 51  1  0  0  0  0 
 30 33  2  0  0  0  0 
 30 52  1  0  0  0  0 
 31 34  2  0  0  0  0 
 31 36  1  0  0  0  0 
 32 53  1  0  0  0  0 
 32 54  1  0  0  0  0 
 32 55  1  0  0  0  0 
 33 34  1  0  0  0  0 
 33 56  1  0  0  0  0 
 35 37  1  0  0  0  0 
 35 57  1  0  0  0  0 
 35 58  1  0  0  0  0 
 37 59  1  0  0  0  0 
 37 60  1  0  0  0  0 
 37 61  1  0  0  0  0 
M  END
> <cdk:Title>
43872589

> <cdk:Remark>
null

> <PUBCHEM_COMPOUND_CID>
43872589

> <PUBCHEM_COMPOUND_CANONICALIZED>
1

> <PUBCHEM_CACTVS_COMPLEXITY>
845

> <PUBCHEM_CACTVS_HBOND_ACCEPTOR>
10

> <PUBCHEM_CACTVS_HBOND_DONOR>
1

> <PUBCHEM_CACTVS_ROTATABLE_BOND>
9

> <PUBCHEM_CACTVS_SUBSKEYS>
AAADceB7OcBAAAAAAAAAAAAAAAAAAAAAAAAwYMAAAAAAAAABUAAAHwQQQAAADAzh2B4yx4LABAKIAiVSUHDCCBAhIgAIiBqObIgMZiLEsbuWOCjk1BHI6AewwAAOIEAAwAAAIABAgAGAAABAAAAAAAAAAA==

> <PUBCHEM_IUPAC_OPENEYE_NAME>
2-(4-ethoxy-N-(2-methoxy-5-methyl-phenyl)sulfonyl-anilino)-N-[4-fluoro-3-(trifluoromethyl)phenyl]acetamide

> <PUBCHEM_IUPAC_CAS_NAME>
2-(4-ethoxy-N-(2-methoxy-5-methylphenyl)sulfonylanilino)-N-[4-fluoro-3-(trifluoromethyl)phenyl]acetamide

> <PUBCHEM_IUPAC_NAME>
2-(4-ethoxy-N-(2-methoxy-5-methylphenyl)sulfonylanilino)-N-[4-fluoro-3-(trifluoromethyl)phenyl]acetamide

> <PUBCHEM_IUPAC_SYSTEMATIC_NAME>
2-[(4-ethoxyphenyl)-(2-methoxy-5-methyl-phenyl)sulfonyl-amino]-N-[4-fluoranyl-3-(trifluoromethyl)phenyl]ethanamide

> <PUBCHEM_IUPAC_TRADITIONAL_NAME>
2-(4-ethoxy-N-(2-methoxy-5-methyl-phenyl)sulfonyl-anilino)-N-[4-fluoro-3-(trifluoromethyl)phenyl]acetamide

> <PUBCHEM_IUPAC_INCHI>
InChI=1S/C25H24F4N2O5S/c1-4-36-19-9-7-18(8-10-19)31(37(33,34)23-13-16(2)5-12-22(23)35-3)15-24(32)30-17-6-11-21(26)20(14-17)25(27,28)29/h5-14H,4,15H2,1-3H3,(H,30,32)

> <PUBCHEM_IUPAC_INCHIKEY>
DFIMVAOYEVHWLE-UHFFFAOYSA-N

> <PUBCHEM_XLOGP3_AA>
5.2

> <PUBCHEM_EXACT_MASS>
540.134206

> <PUBCHEM_MOLECULAR_FORMULA>
C25H24F4N2O5S

> <PUBCHEM_MOLECULAR_WEIGHT>
540.527073

> <PUBCHEM_OPENEYE_CAN_SMILES>
CCOC1=CC=C(C=C1)N(CC(=O)NC2=CC(=C(C=C2)F)C(F)(F)F)S(=O)(=O)C3=C(C=CC(=C3)C)OC

> <PUBCHEM_OPENEYE_ISO_SMILES>
CCOC1=CC=C(C=C1)N(CC(=O)NC2=CC(=C(C=C2)F)C(F)(F)F)S(=O)(=O)C3=C(C=CC(=C3)C)OC

> <PUBCHEM_CACTVS_TPSA>
93.3

> <PUBCHEM_MONOISOTOPIC_WEIGHT>
540.134206

> <PUBCHEM_TOTAL_CHARGE>
0

> <PUBCHEM_HEAVY_ATOM_COUNT>
37

> <PUBCHEM_ATOM_DEF_STEREO_COUNT>
0

> <PUBCHEM_ATOM_UDEF_STEREO_COUNT>
0

> <PUBCHEM_BOND_DEF_STEREO_COUNT>
0

> <PUBCHEM_BOND_UDEF_STEREO_COUNT>
0

> <PUBCHEM_ISOTOPIC_ATOM_COUNT>
0

> <PUBCHEM_COMPONENT_COUNT>
1

> <PUBCHEM_CACTVS_TAUTO_COUNT>
3

> <PUBCHEM_COORDINATE_TYPE>
1

> <PUBCHEM_BONDANNOTATIONS>
13  16  8

$$$$
