48983308
  CDK     1205141210

 35 37  0  0  0  0  0  0  0  0999 V2000
    4.6783    0.6708    0.0000 O   0  0  0  0  0  0  0  0  0  0  0  0
    6.7619    0.7321    0.0000 O   0  0  0  0  0  0  0  0  0  0  0  0
    6.7619   -1.0000    0.0000 N   0  0  0  0  0  0  0  0  0  0  0  0
    3.7320    0.3660    0.0000 C   0  0  0  0  0  0  0  0  0  0  0  0
    3.7320   -0.6340    0.0000 C   0  0  0  0  0  0  0  0  0  0  0  0
    5.2619   -0.1340    0.0000 C   0  0  0  0  0  0  0  0  0  0  0  0
    2.8660    0.8660    0.0000 C   0  0  0  0  0  0  0  0  0  0  0  0
    4.6783   -0.9387    0.0000 C   0  0  0  0  0  0  0  0  0  0  0  0
    6.2619   -0.1340    0.0000 C   0  0  0  0  0  0  0  0  0  0  0  0
    2.8660   -1.1340    0.0000 C   0  0  0  0  0  0  0  0  0  0  0  0
    2.0000    0.3660    0.0000 C   0  0  0  0  0  0  0  0  0  0  0  0
    7.7619   -1.0000    0.0000 C   0  0  0  0  0  0  0  0  0  0  0  0
    2.0000   -0.6340    0.0000 C   0  0  0  0  0  0  0  0  0  0  0  0
    2.8660    1.8660    0.0000 C   0  0  0  0  0  0  0  0  0  0  0  0
    6.2619   -1.8660    0.0000 C   0  0  0  0  0  0  0  0  0  0  0  0
    8.2619   -1.8660    0.0000 C   0  0  0  0  0  0  0  0  0  0  0  0
    8.2619   -0.1340    0.0000 C   0  0  0  0  0  0  0  0  0  0  0  0
    9.2619   -1.8660    0.0000 C   0  0  0  0  0  0  0  0  0  0  0  0
    9.2619   -0.1340    0.0000 C   0  0  0  0  0  0  0  0  0  0  0  0
    9.7619   -1.0000    0.0000 C   0  0  0  0  0  0  0  0  0  0  0  0
    4.8709   -1.5280    0.0000 H   0  0  0  0  0  0  0  0  0  0  0  0
    2.8660   -1.7540    0.0000 H   0  0  0  0  0  0  0  0  0  0  0  0
    1.4631    0.6760    0.0000 H   0  0  0  0  0  0  0  0  0  0  0  0
    1.4631   -0.9440    0.0000 H   0  0  0  0  0  0  0  0  0  0  0  0
    3.4860    1.8660    0.0000 H   0  0  0  0  0  0  0  0  0  0  0  0
    2.8660    2.4860    0.0000 H   0  0  0  0  0  0  0  0  0  0  0  0
    2.2460    1.8660    0.0000 H   0  0  0  0  0  0  0  0  0  0  0  0
    5.7249   -1.5560    0.0000 H   0  0  0  0  0  0  0  0  0  0  0  0
    5.9519   -2.4030    0.0000 H   0  0  0  0  0  0  0  0  0  0  0  0
    6.7988   -2.1760    0.0000 H   0  0  0  0  0  0  0  0  0  0  0  0
    7.9519   -2.4030    0.0000 H   0  0  0  0  0  0  0  0  0  0  0  0
    7.9519    0.4030    0.0000 H   0  0  0  0  0  0  0  0  0  0  0  0
    9.5719   -2.4030    0.0000 H   0  0  0  0  0  0  0  0  0  0  0  0
    9.5719    0.4030    0.0000 H   0  0  0  0  0  0  0  0  0  0  0  0
   10.3819   -1.0000    0.0000 H   0  0  0  0  0  0  0  0  0  0  0  0
  1  4  1  0  0  0  0 
  1  6  1  0  0  0  0 
  2  9  2  0  0  0  0 
  3  9  1  0  0  0  0 
  3 12  1  0  0  0  0 
  3 15  1  0  0  0  0 
  4  5  1  0  0  0  0 
  4  7  2  0  0  0  0 
  5  8  1  0  0  0  0 
  5 10  2  0  0  0  0 
  6  8  2  0  0  0  0 
  6  9  1  0  0  0  0 
  7 11  1  0  0  0  0 
  7 14  1  0  0  0  0 
  8 21  1  0  0  0  0 
 10 13  1  0  0  0  0 
 10 22  1  0  0  0  0 
 11 13  2  0  0  0  0 
 11 23  1  0  0  0  0 
 12 16  2  0  0  0  0 
 12 17  1  0  0  0  0 
 13 24  1  0  0  0  0 
 14 25  1  0  0  0  0 
 14 26  1  0  0  0  0 
 14 27  1  0  0  0  0 
 15 28  1  0  0  0  0 
 15 29  1  0  0  0  0 
 15 30  1  0  0  0  0 
 16 18  1  0  0  0  0 
 16 31  1  0  0  0  0 
 17 19  2  0  0  0  0 
 17 32  1  0  0  0  0 
 18 20  2  0  0  0  0 
 18 33  1  0  0  0  0 
 19 20  1  0  0  0  0 
 19 34  1  0  0  0  0 
 20 35  1  0  0  0  0 
M  END
> <cdk:Title>
48983308

> <cdk:Remark>
null

> <PUBCHEM_COMPOUND_CID>
48983308

> <PUBCHEM_COMPOUND_CANONICALIZED>
1

> <PUBCHEM_CACTVS_COMPLEXITY>
351

> <PUBCHEM_CACTVS_HBOND_ACCEPTOR>
2

> <PUBCHEM_CACTVS_HBOND_DONOR>
0

> <PUBCHEM_CACTVS_ROTATABLE_BOND>
2

> <PUBCHEM_CACTVS_SUBSKEYS>
AAADccB6MAAAAAAAAAAAAAAAAAAAASAAAAAwYAAAAAAAAEgB9AAAHgAAAAAADAyBmAQyxsMABECIAqVSUAKCCAAlIgAIiAHObMgOJjLEtb+HOSjkxhHY6YeY3/LuAAACAAAIAAAAAAQAABAAAAAAAAAAAA==

> <PUBCHEM_IUPAC_OPENEYE_NAME>
N,7-dimethyl-N-phenyl-benzofuran-2-carboxamide

> <PUBCHEM_IUPAC_CAS_NAME>
N,7-dimethyl-N-phenyl-2-benzofurancarboxamide

> <PUBCHEM_IUPAC_NAME>
N,7-dimethyl-N-phenyl-1-benzofuran-2-carboxamide

> <PUBCHEM_IUPAC_SYSTEMATIC_NAME>
N,7-dimethyl-N-phenyl-1-benzofuran-2-carboxamide

> <PUBCHEM_IUPAC_TRADITIONAL_NAME>
N,7-dimethyl-N-phenyl-coumarilamide

> <PUBCHEM_IUPAC_INCHI>
InChI=1S/C17H15NO2/c1-12-7-6-8-13-11-15(20-16(12)13)17(19)18(2)14-9-4-3-5-10-14/h3-11H,1-2H3

> <PUBCHEM_IUPAC_INCHIKEY>
UNYPURZNNRYLNL-UHFFFAOYSA-N

> <PUBCHEM_XLOGP3_AA>
4

> <PUBCHEM_EXACT_MASS>
265.110279

> <PUBCHEM_MOLECULAR_FORMULA>
C17H15NO2

> <PUBCHEM_MOLECULAR_WEIGHT>
265.3065

> <PUBCHEM_OPENEYE_CAN_SMILES>
CC1=CC=CC2=C1OC(=C2)C(=O)N(C)C3=CC=CC=C3

> <PUBCHEM_OPENEYE_ISO_SMILES>
CC1=CC=CC2=C1OC(=C2)C(=O)N(C)C3=CC=CC=C3

> <PUBCHEM_CACTVS_TPSA>
33.4

> <PUBCHEM_MONOISOTOPIC_WEIGHT>
265.110279

> <PUBCHEM_TOTAL_CHARGE>
0

> <PUBCHEM_HEAVY_ATOM_COUNT>
20

> <PUBCHEM_ATOM_DEF_STEREO_COUNT>
0

> <PUBCHEM_ATOM_UDEF_STEREO_COUNT>
0

> <PUBCHEM_BOND_DEF_STEREO_COUNT>
0

> <PUBCHEM_BOND_UDEF_STEREO_COUNT>
0

> <PUBCHEM_ISOTOPIC_ATOM_COUNT>
0

> <PUBCHEM_COMPONENT_COUNT>
1

> <PUBCHEM_CACTVS_TAUTO_COUNT>
1

> <PUBCHEM_COORDINATE_TYPE>
1

> <PUBCHEM_BONDANNOTATIONS>
1  4  8

$$$$
48983308
  CDK     1205141211

 35 37  0  0  0  0  0  0  0  0999 V2000
    4.6783    0.6708    0.0000 O   0  0  0  0  0  0  0  0  0  0  0  0
    6.7619    0.7321    0.0000 O   0  0  0  0  0  0  0  0  0  0  0  0
    6.7619   -1.0000    0.0000 N   0  0  0  0  0  0  0  0  0  0  0  0
    3.7320    0.3660    0.0000 C   0  0  0  0  0  0  0  0  0  0  0  0
    3.7320   -0.6340    0.0000 C   0  0  0  0  0  0  0  0  0  0  0  0
    5.2619   -0.1340    0.0000 C   0  0  0  0  0  0  0  0  0  0  0  0
    2.8660    0.8660    0.0000 C   0  0  0  0  0  0  0  0  0  0  0  0
    4.6783   -0.9387    0.0000 C   0  0  0  0  0  0  0  0  0  0  0  0
    6.2619   -0.1340    0.0000 C   0  0  0  0  0  0  0  0  0  0  0  0
    2.8660   -1.1340    0.0000 C   0  0  0  0  0  0  0  0  0  0  0  0
    2.0000    0.3660    0.0000 C   0  0  0  0  0  0  0  0  0  0  0  0
    7.7619   -1.0000    0.0000 C   0  0  0  0  0  0  0  0  0  0  0  0
    2.0000   -0.6340    0.0000 C   0  0  0  0  0  0  0  0  0  0  0  0
    2.8660    1.8660    0.0000 C   0  0  0  0  0  0  0  0  0  0  0  0
    6.2619   -1.8660    0.0000 C   0  0  0  0  0  0  0  0  0  0  0  0
    8.2619   -1.8660    0.0000 C   0  0  0  0  0  0  0  0  0  0  0  0
    8.2619   -0.1340    0.0000 C   0  0  0  0  0  0  0  0  0  0  0  0
    9.2619   -1.8660    0.0000 C   0  0  0  0  0  0  0  0  0  0  0  0
    9.2619   -0.1340    0.0000 C   0  0  0  0  0  0  0  0  0  0  0  0
    9.7619   -1.0000    0.0000 C   0  0  0  0  0  0  0  0  0  0  0  0
    4.8709   -1.5280    0.0000 H   0  0  0  0  0  0  0  0  0  0  0  0
    2.8660   -1.7540    0.0000 H   0  0  0  0  0  0  0  0  0  0  0  0
    1.4631    0.6760    0.0000 H   0  0  0  0  0  0  0  0  0  0  0  0
    1.4631   -0.9440    0.0000 H   0  0  0  0  0  0  0  0  0  0  0  0
    3.4860    1.8660    0.0000 H   0  0  0  0  0  0  0  0  0  0  0  0
    2.8660    2.4860    0.0000 H   0  0  0  0  0  0  0  0  0  0  0  0
    2.2460    1.8660    0.0000 H   0  0  0  0  0  0  0  0  0  0  0  0
    5.7249   -1.5560    0.0000 H   0  0  0  0  0  0  0  0  0  0  0  0
    5.9519   -2.4030    0.0000 H   0  0  0  0  0  0  0  0  0  0  0  0
    6.7988   -2.1760    0.0000 H   0  0  0  0  0  0  0  0  0  0  0  0
    7.9519   -2.4030    0.0000 H   0  0  0  0  0  0  0  0  0  0  0  0
    7.9519    0.4030    0.0000 H   0  0  0  0  0  0  0  0  0  0  0  0
    9.5719   -2.4030    0.0000 H   0  0  0  0  0  0  0  0  0  0  0  0
    9.5719    0.4030    0.0000 H   0  0  0  0  0  0  0  0  0  0  0  0
   10.3819   -1.0000    0.0000 H   0  0  0  0  0  0  0  0  0  0  0  0
  1  4  1  0  0  0  0 
  1  6  1  0  0  0  0 
  2  9  2  0  0  0  0 
  3  9  1  0  0  0  0 
  3 12  1  0  0  0  0 
  3 15  1  0  0  0  0 
  4  5  1  0  0  0  0 
  4  7  2  0  0  0  0 
  5  8  1  0  0  0  0 
  5 10  2  0  0  0  0 
  6  8  2  0  0  0  0 
  6  9  1  0  0  0  0 
  7 11  1  0  0  0  0 
  7 14  1  0  0  0  0 
  8 21  1  0  0  0  0 
 10 13  1  0  0  0  0 
 10 22  1  0  0  0  0 
 11 13  2  0  0  0  0 
 11 23  1  0  0  0  0 
 12 16  2  0  0  0  0 
 12 17  1  0  0  0  0 
 13 24  1  0  0  0  0 
 14 25  1  0  0  0  0 
 14 26  1  0  0  0  0 
 14 27  1  0  0  0  0 
 15 28  1  0  0  0  0 
 15 29  1  0  0  0  0 
 15 30  1  0  0  0  0 
 16 18  1  0  0  0  0 
 16 31  1  0  0  0  0 
 17 19  2  0  0  0  0 
 17 32  1  0  0  0  0 
 18 20  2  0  0  0  0 
 18 33  1  0  0  0  0 
 19 20  1  0  0  0  0 
 19 34  1  0  0  0  0 
 20 35  1  0  0  0  0 
M  END
> <cdk:Title>
48983308

> <cdk:Remark>
null

> <PUBCHEM_COMPOUND_CID>
48983308

> <PUBCHEM_COMPOUND_CANONICALIZED>
1

> <PUBCHEM_CACTVS_COMPLEXITY>
351

> <PUBCHEM_CACTVS_HBOND_ACCEPTOR>
2

> <PUBCHEM_CACTVS_HBOND_DONOR>
0

> <PUBCHEM_CACTVS_ROTATABLE_BOND>
2

> <PUBCHEM_CACTVS_SUBSKEYS>
AAADccB6MAAAAAAAAAAAAAAAAAAAASAAAAAwYAAAAAAAAEgB9AAAHgAAAAAADAyBmAQyxsMABECIAqVSUAKCCAAlIgAIiAHObMgOJjLEtb+HOSjkxhHY6YeY3/LuAAACAAAIAAAAAAQAABAAAAAAAAAAAA==

> <PUBCHEM_IUPAC_OPENEYE_NAME>
N,7-dimethyl-N-phenyl-benzofuran-2-carboxamide

> <PUBCHEM_IUPAC_CAS_NAME>
N,7-dimethyl-N-phenyl-2-benzofurancarboxamide

> <PUBCHEM_IUPAC_NAME>
N,7-dimethyl-N-phenyl-1-benzofuran-2-carboxamide

> <PUBCHEM_IUPAC_SYSTEMATIC_NAME>
N,7-dimethyl-N-phenyl-1-benzofuran-2-carboxamide

> <PUBCHEM_IUPAC_TRADITIONAL_NAME>
N,7-dimethyl-N-phenyl-coumarilamide

> <PUBCHEM_IUPAC_INCHI>
InChI=1S/C17H15NO2/c1-12-7-6-8-13-11-15(20-16(12)13)17(19)18(2)14-9-4-3-5-10-14/h3-11H,1-2H3

> <PUBCHEM_IUPAC_INCHIKEY>
UNYPURZNNRYLNL-UHFFFAOYSA-N

> <PUBCHEM_XLOGP3_AA>
4

> <PUBCHEM_EXACT_MASS>
265.110279

> <PUBCHEM_MOLECULAR_FORMULA>
C17H15NO2

> <PUBCHEM_MOLECULAR_WEIGHT>
265.3065

> <PUBCHEM_OPENEYE_CAN_SMILES>
CC1=CC=CC2=C1OC(=C2)C(=O)N(C)C3=CC=CC=C3

> <PUBCHEM_OPENEYE_ISO_SMILES>
CC1=CC=CC2=C1OC(=C2)C(=O)N(C)C3=CC=CC=C3

> <PUBCHEM_CACTVS_TPSA>
33.4

> <PUBCHEM_MONOISOTOPIC_WEIGHT>
265.110279

> <PUBCHEM_TOTAL_CHARGE>
0

> <PUBCHEM_HEAVY_ATOM_COUNT>
20

> <PUBCHEM_ATOM_DEF_STEREO_COUNT>
0

> <PUBCHEM_ATOM_UDEF_STEREO_COUNT>
0

> <PUBCHEM_BOND_DEF_STEREO_COUNT>
0

> <PUBCHEM_BOND_UDEF_STEREO_COUNT>
0

> <PUBCHEM_ISOTOPIC_ATOM_COUNT>
0

> <PUBCHEM_COMPONENT_COUNT>
1

> <PUBCHEM_CACTVS_TAUTO_COUNT>
1

> <PUBCHEM_COORDINATE_TYPE>
1

> <PUBCHEM_BONDANNOTATIONS>
1  4  8

$$$$
