53188891
  CDK     1205141210

 57 60  0  0  0  0  0  0  0  0999 V2000
    6.7619   -0.1651    0.0000 O   0  0  0  0  0  0  0  0  0  0  0  0
    9.2619    2.4330    0.0000 N   0  0  0  0  0  0  0  0  0  0  0  0
   11.2619    2.4330    0.0000 N   0  0  0  0  0  0  0  0  0  0  0  0
    6.7619    1.5670    0.0000 N   0  0  0  0  0  0  0  0  0  0  0  0
    3.7320    1.2010    0.0000 N   0  0  0  0  0  0  0  0  0  0  0  0
    4.6783   -0.1038    0.0000 N   0  0  0  0  0  0  0  0  0  0  0  0
    2.0000    0.2010    0.0000 N   0  0  0  0  0  0  0  0  0  0  0  0
    9.7619    1.5670    0.0000 C   0  0  0  0  0  0  0  0  0  0  0  0
    9.7619    3.2990    0.0000 C   0  0  0  0  0  0  0  0  0  0  0  0
   10.7619    3.2990    0.0000 C   0  0  0  0  0  0  0  0  0  0  0  0
   10.7619    1.5670    0.0000 C   0  0  0  0  0  0  0  0  0  0  0  0
   12.2619    2.4330    0.0000 C   0  0  0  0  0  0  0  0  0  0  0  0
    8.2619    2.4330    0.0000 C   0  0  0  0  0  0  0  0  0  0  0  0
   12.7619    3.2990    0.0000 C   0  0  0  0  0  0  0  0  0  0  0  0
    7.7619    1.5670    0.0000 C   0  0  0  0  0  0  0  0  0  0  0  0
   13.7619    3.2990    0.0000 C   0  0  0  0  0  0  0  0  0  0  0  0
    6.2619    0.7010    0.0000 C   0  0  0  0  0  0  0  0  0  0  0  0
    5.2619    0.7010    0.0000 C   0  0  0  0  0  0  0  0  0  0  0  0
    3.7320    0.2010    0.0000 C   0  0  0  0  0  0  0  0  0  0  0  0
    4.6783    1.5057    0.0000 C   0  0  0  0  0  0  0  0  0  0  0  0
    2.8660   -0.2990    0.0000 C   0  0  0  0  0  0  0  0  0  0  0  0
    2.8660    1.7010    0.0000 C   0  0  0  0  0  0  0  0  0  0  0  0
    2.8660   -1.2990    0.0000 C   0  0  0  0  0  0  0  0  0  0  0  0
    2.0000    1.2010    0.0000 C   0  0  0  0  0  0  0  0  0  0  0  0
    2.0000   -1.7990    0.0000 C   0  0  0  0  0  0  0  0  0  0  0  0
    3.7320   -1.7990    0.0000 C   0  0  0  0  0  0  0  0  0  0  0  0
    2.0000   -2.7990    0.0000 C   0  0  0  0  0  0  0  0  0  0  0  0
    3.7320   -2.7990    0.0000 C   0  0  0  0  0  0  0  0  0  0  0  0
    2.8660   -3.2990    0.0000 C   0  0  0  0  0  0  0  0  0  0  0  0
    9.1793    1.3549    0.0000 H   0  0  0  0  0  0  0  0  0  0  0  0
    9.8695    0.9564    0.0000 H   0  0  0  0  0  0  0  0  0  0  0  0
    9.8695    3.9096    0.0000 H   0  0  0  0  0  0  0  0  0  0  0  0
    9.1793    3.5111    0.0000 H   0  0  0  0  0  0  0  0  0  0  0  0
   10.6542    0.9564    0.0000 H   0  0  0  0  0  0  0  0  0  0  0  0
   11.3445    1.3549    0.0000 H   0  0  0  0  0  0  0  0  0  0  0  0
   11.3445    3.5111    0.0000 H   0  0  0  0  0  0  0  0  0  0  0  0
   10.6542    3.9096    0.0000 H   0  0  0  0  0  0  0  0  0  0  0  0
    8.3695    3.0436    0.0000 H   0  0  0  0  0  0  0  0  0  0  0  0
    7.6793    2.6451    0.0000 H   0  0  0  0  0  0  0  0  0  0  0  0
   12.1542    1.8224    0.0000 H   0  0  0  0  0  0  0  0  0  0  0  0
   12.8445    2.2210    0.0000 H   0  0  0  0  0  0  0  0  0  0  0  0
   12.8695    3.9096    0.0000 H   0  0  0  0  0  0  0  0  0  0  0  0
   12.1793    3.5111    0.0000 H   0  0  0  0  0  0  0  0  0  0  0  0
    7.6542    0.9564    0.0000 H   0  0  0  0  0  0  0  0  0  0  0  0
    8.3445    1.3549    0.0000 H   0  0  0  0  0  0  0  0  0  0  0  0
   13.7619    2.6790    0.0000 H   0  0  0  0  0  0  0  0  0  0  0  0
   14.3819    3.2990    0.0000 H   0  0  0  0  0  0  0  0  0  0  0  0
   13.7619    3.9190    0.0000 H   0  0  0  0  0  0  0  0  0  0  0  0
    6.4519    2.1039    0.0000 H   0  0  0  0  0  0  0  0  0  0  0  0
    4.8709    2.0950    0.0000 H   0  0  0  0  0  0  0  0  0  0  0  0
    2.8660    2.3210    0.0000 H   0  0  0  0  0  0  0  0  0  0  0  0
    1.4631    1.5110    0.0000 H   0  0  0  0  0  0  0  0  0  0  0  0
    1.4631   -1.4890    0.0000 H   0  0  0  0  0  0  0  0  0  0  0  0
    4.2690   -1.4890    0.0000 H   0  0  0  0  0  0  0  0  0  0  0  0
    1.4631   -3.1090    0.0000 H   0  0  0  0  0  0  0  0  0  0  0  0
    4.2690   -3.1090    0.0000 H   0  0  0  0  0  0  0  0  0  0  0  0
    2.8660   -3.9190    0.0000 H   0  0  0  0  0  0  0  0  0  0  0  0
  1 17  2  0  0  0  0 
  2  8  1  0  0  0  0 
  2  9  1  0  0  0  0 
  2 13  1  0  0  0  0 
  3 10  1  0  0  0  0 
  3 11  1  0  0  0  0 
  3 12  1  0  0  0  0 
  4 15  1  0  0  0  0 
  4 17  1  0  0  0  0 
  4 49  1  0  0  0  0 
  5 19  1  0  0  0  0 
  5 20  1  0  0  0  0 
  5 22  1  0  0  0  0 
  6 18  1  0  0  0  0 
  6 19  2  0  0  0  0 
  7 21  2  0  0  0  0 
  7 24  1  0  0  0  0 
  8 11  1  0  0  0  0 
  8 30  1  0  0  0  0 
  8 31  1  0  0  0  0 
  9 10  1  0  0  0  0 
  9 32  1  0  0  0  0 
  9 33  1  0  0  0  0 
 10 36  1  0  0  0  0 
 10 37  1  0  0  0  0 
 11 34  1  0  0  0  0 
 11 35  1  0  0  0  0 
 12 14  1  0  0  0  0 
 12 40  1  0  0  0  0 
 12 41  1  0  0  0  0 
 13 15  1  0  0  0  0 
 13 38  1  0  0  0  0 
 13 39  1  0  0  0  0 
 14 16  1  0  0  0  0 
 14 42  1  0  0  0  0 
 14 43  1  0  0  0  0 
 15 44  1  0  0  0  0 
 15 45  1  0  0  0  0 
 16 46  1  0  0  0  0 
 16 47  1  0  0  0  0 
 16 48  1  0  0  0  0 
 17 18  1  0  0  0  0 
 18 20  2  0  0  0  0 
 19 21  1  0  0  0  0 
 20 50  1  0  0  0  0 
 21 23  1  0  0  0  0 
 22 24  2  0  0  0  0 
 22 51  1  0  0  0  0 
 23 25  2  0  0  0  0 
 23 26  1  0  0  0  0 
 24 52  1  0  0  0  0 
 25 27  1  0  0  0  0 
 25 53  1  0  0  0  0 
 26 28  2  0  0  0  0 
 26 54  1  0  0  0  0 
 27 29  2  0  0  0  0 
 27 55  1  0  0  0  0 
 28 29  1  0  0  0  0 
 28 56  1  0  0  0  0 
 29 57  1  0  0  0  0 
M  END
> <cdk:Title>
53188891

> <cdk:Remark>
null

> <PUBCHEM_COMPOUND_CID>
53188891

> <PUBCHEM_COMPOUND_CANONICALIZED>
1

> <PUBCHEM_CACTVS_COMPLEXITY>
517

> <PUBCHEM_CACTVS_HBOND_ACCEPTOR>
5

> <PUBCHEM_CACTVS_HBOND_DONOR>
1

> <PUBCHEM_CACTVS_ROTATABLE_BOND>
7

> <PUBCHEM_CACTVS_SUBSKEYS>
AAADceB7oAAAAAAAAAAAAAAAAAAAAWAAAAA8WIAAAAAAAFgB8AAAHgAQAAAADAjBnwQ/sJ/MGACoAzd3dACCgC03EqAJ2KG4dNiIaOrA2TGUIIholgLIyOcQgIAOAAAAAAAAAAAAAAAAAAAAAAAAAAAAAA==

> <PUBCHEM_IUPAC_OPENEYE_NAME>
8-phenyl-N-[2-(4-propylpiperazin-1-yl)ethyl]imidazo[1,2-a]pyrazine-2-carboxamide

> <PUBCHEM_IUPAC_CAS_NAME>
8-phenyl-N-[2-(4-propyl-1-piperazinyl)ethyl]-2-imidazo[1,2-a]pyrazinecarboxamide

> <PUBCHEM_IUPAC_NAME>
8-phenyl-N-[2-(4-propylpiperazin-1-yl)ethyl]imidazo[1,2-a]pyrazine-2-carboxamide

> <PUBCHEM_IUPAC_SYSTEMATIC_NAME>
8-phenyl-N-[2-(4-propylpiperazin-1-yl)ethyl]imidazo[1,2-a]pyrazine-2-carboxamide

> <PUBCHEM_IUPAC_TRADITIONAL_NAME>
8-phenyl-N-[2-(4-propylpiperazino)ethyl]imidazo[1,2-a]pyrazine-2-carboxamide

> <PUBCHEM_IUPAC_INCHI>
InChI=1S/C22H28N6O/c1-2-10-26-13-15-27(16-14-26)11-8-24-22(29)19-17-28-12-9-23-20(21(28)25-19)18-6-4-3-5-7-18/h3-7,9,12,17H,2,8,10-11,13-16H2,1H3,(H,24,29)

> <PUBCHEM_IUPAC_INCHIKEY>
OKSODOUYNMNIAU-UHFFFAOYSA-N

> <PUBCHEM_XLOGP3_AA>
2.7

> <PUBCHEM_EXACT_MASS>
392.23246

> <PUBCHEM_MOLECULAR_FORMULA>
C22H28N6O

> <PUBCHEM_MOLECULAR_WEIGHT>
392.49732

> <PUBCHEM_OPENEYE_CAN_SMILES>
CCCN1CCN(CC1)CCNC(=O)C2=CN3C=CN=C(C3=N2)C4=CC=CC=C4

> <PUBCHEM_OPENEYE_ISO_SMILES>
CCCN1CCN(CC1)CCNC(=O)C2=CN3C=CN=C(C3=N2)C4=CC=CC=C4

> <PUBCHEM_CACTVS_TPSA>
65.8

> <PUBCHEM_MONOISOTOPIC_WEIGHT>
392.23246

> <PUBCHEM_TOTAL_CHARGE>
0

> <PUBCHEM_HEAVY_ATOM_COUNT>
29

> <PUBCHEM_ATOM_DEF_STEREO_COUNT>
0

> <PUBCHEM_ATOM_UDEF_STEREO_COUNT>
0

> <PUBCHEM_BOND_DEF_STEREO_COUNT>
0

> <PUBCHEM_BOND_UDEF_STEREO_COUNT>
0

> <PUBCHEM_ISOTOPIC_ATOM_COUNT>
0

> <PUBCHEM_COMPONENT_COUNT>
1

> <PUBCHEM_CACTVS_TAUTO_COUNT>
2

> <PUBCHEM_COORDINATE_TYPE>
1

> <PUBCHEM_BONDANNOTATIONS>
18  20  8

$$$$
53188891
  CDK     1205141211

 57 60  0  0  0  0  0  0  0  0999 V2000
    6.7619   -0.1651    0.0000 O   0  0  0  0  0  0  0  0  0  0  0  0
    9.2619    2.4330    0.0000 N   0  0  0  0  0  0  0  0  0  0  0  0
   11.2619    2.4330    0.0000 N   0  0  0  0  0  0  0  0  0  0  0  0
    6.7619    1.5670    0.0000 N   0  0  0  0  0  0  0  0  0  0  0  0
    3.7320    1.2010    0.0000 N   0  0  0  0  0  0  0  0  0  0  0  0
    4.6783   -0.1038    0.0000 N   0  0  0  0  0  0  0  0  0  0  0  0
    2.0000    0.2010    0.0000 N   0  0  0  0  0  0  0  0  0  0  0  0
    9.7619    1.5670    0.0000 C   0  0  0  0  0  0  0  0  0  0  0  0
    9.7619    3.2990    0.0000 C   0  0  0  0  0  0  0  0  0  0  0  0
   10.7619    3.2990    0.0000 C   0  0  0  0  0  0  0  0  0  0  0  0
   10.7619    1.5670    0.0000 C   0  0  0  0  0  0  0  0  0  0  0  0
   12.2619    2.4330    0.0000 C   0  0  0  0  0  0  0  0  0  0  0  0
    8.2619    2.4330    0.0000 C   0  0  0  0  0  0  0  0  0  0  0  0
   12.7619    3.2990    0.0000 C   0  0  0  0  0  0  0  0  0  0  0  0
    7.7619    1.5670    0.0000 C   0  0  0  0  0  0  0  0  0  0  0  0
   13.7619    3.2990    0.0000 C   0  0  0  0  0  0  0  0  0  0  0  0
    6.2619    0.7010    0.0000 C   0  0  0  0  0  0  0  0  0  0  0  0
    5.2619    0.7010    0.0000 C   0  0  0  0  0  0  0  0  0  0  0  0
    3.7320    0.2010    0.0000 C   0  0  0  0  0  0  0  0  0  0  0  0
    4.6783    1.5057    0.0000 C   0  0  0  0  0  0  0  0  0  0  0  0
    2.8660   -0.2990    0.0000 C   0  0  0  0  0  0  0  0  0  0  0  0
    2.8660    1.7010    0.0000 C   0  0  0  0  0  0  0  0  0  0  0  0
    2.8660   -1.2990    0.0000 C   0  0  0  0  0  0  0  0  0  0  0  0
    2.0000    1.2010    0.0000 C   0  0  0  0  0  0  0  0  0  0  0  0
    2.0000   -1.7990    0.0000 C   0  0  0  0  0  0  0  0  0  0  0  0
    3.7320   -1.7990    0.0000 C   0  0  0  0  0  0  0  0  0  0  0  0
    2.0000   -2.7990    0.0000 C   0  0  0  0  0  0  0  0  0  0  0  0
    3.7320   -2.7990    0.0000 C   0  0  0  0  0  0  0  0  0  0  0  0
    2.8660   -3.2990    0.0000 C   0  0  0  0  0  0  0  0  0  0  0  0
    9.1793    1.3549    0.0000 H   0  0  0  0  0  0  0  0  0  0  0  0
    9.8695    0.9564    0.0000 H   0  0  0  0  0  0  0  0  0  0  0  0
    9.8695    3.9096    0.0000 H   0  0  0  0  0  0  0  0  0  0  0  0
    9.1793    3.5111    0.0000 H   0  0  0  0  0  0  0  0  0  0  0  0
   10.6542    0.9564    0.0000 H   0  0  0  0  0  0  0  0  0  0  0  0
   11.3445    1.3549    0.0000 H   0  0  0  0  0  0  0  0  0  0  0  0
   11.3445    3.5111    0.0000 H   0  0  0  0  0  0  0  0  0  0  0  0
   10.6542    3.9096    0.0000 H   0  0  0  0  0  0  0  0  0  0  0  0
    8.3695    3.0436    0.0000 H   0  0  0  0  0  0  0  0  0  0  0  0
    7.6793    2.6451    0.0000 H   0  0  0  0  0  0  0  0  0  0  0  0
   12.1542    1.8224    0.0000 H   0  0  0  0  0  0  0  0  0  0  0  0
   12.8445    2.2210    0.0000 H   0  0  0  0  0  0  0  0  0  0  0  0
   12.8695    3.9096    0.0000 H   0  0  0  0  0  0  0  0  0  0  0  0
   12.1793    3.5111    0.0000 H   0  0  0  0  0  0  0  0  0  0  0  0
    7.6542    0.9564    0.0000 H   0  0  0  0  0  0  0  0  0  0  0  0
    8.3445    1.3549    0.0000 H   0  0  0  0  0  0  0  0  0  0  0  0
   13.7619    2.6790    0.0000 H   0  0  0  0  0  0  0  0  0  0  0  0
   14.3819    3.2990    0.0000 H   0  0  0  0  0  0  0  0  0  0  0  0
   13.7619    3.9190    0.0000 H   0  0  0  0  0  0  0  0  0  0  0  0
    6.4519    2.1039    0.0000 H   0  0  0  0  0  0  0  0  0  0  0  0
    4.8709    2.0950    0.0000 H   0  0  0  0  0  0  0  0  0  0  0  0
    2.8660    2.3210    0.0000 H   0  0  0  0  0  0  0  0  0  0  0  0
    1.4631    1.5110    0.0000 H   0  0  0  0  0  0  0  0  0  0  0  0
    1.4631   -1.4890    0.0000 H   0  0  0  0  0  0  0  0  0  0  0  0
    4.2690   -1.4890    0.0000 H   0  0  0  0  0  0  0  0  0  0  0  0
    1.4631   -3.1090    0.0000 H   0  0  0  0  0  0  0  0  0  0  0  0
    4.2690   -3.1090    0.0000 H   0  0  0  0  0  0  0  0  0  0  0  0
    2.8660   -3.9190    0.0000 H   0  0  0  0  0  0  0  0  0  0  0  0
  1 17  2  0  0  0  0 
  2  8  1  0  0  0  0 
  2  9  1  0  0  0  0 
  2 13  1  0  0  0  0 
  3 10  1  0  0  0  0 
  3 11  1  0  0  0  0 
  3 12  1  0  0  0  0 
  4 15  1  0  0  0  0 
  4 17  1  0  0  0  0 
  4 49  1  0  0  0  0 
  5 19  1  0  0  0  0 
  5 20  1  0  0  0  0 
  5 22  1  0  0  0  0 
  6 18  1  0  0  0  0 
  6 19  2  0  0  0  0 
  7 21  2  0  0  0  0 
  7 24  1  0  0  0  0 
  8 11  1  0  0  0  0 
  8 30  1  0  0  0  0 
  8 31  1  0  0  0  0 
  9 10  1  0  0  0  0 
  9 32  1  0  0  0  0 
  9 33  1  0  0  0  0 
 10 36  1  0  0  0  0 
 10 37  1  0  0  0  0 
 11 34  1  0  0  0  0 
 11 35  1  0  0  0  0 
 12 14  1  0  0  0  0 
 12 40  1  0  0  0  0 
 12 41  1  0  0  0  0 
 13 15  1  0  0  0  0 
 13 38  1  0  0  0  0 
 13 39  1  0  0  0  0 
 14 16  1  0  0  0  0 
 14 42  1  0  0  0  0 
 14 43  1  0  0  0  0 
 15 44  1  0  0  0  0 
 15 45  1  0  0  0  0 
 16 46  1  0  0  0  0 
 16 47  1  0  0  0  0 
 16 48  1  0  0  0  0 
 17 18  1  0  0  0  0 
 18 20  2  0  0  0  0 
 19 21  1  0  0  0  0 
 20 50  1  0  0  0  0 
 21 23  1  0  0  0  0 
 22 24  2  0  0  0  0 
 22 51  1  0  0  0  0 
 23 25  2  0  0  0  0 
 23 26  1  0  0  0  0 
 24 52  1  0  0  0  0 
 25 27  1  0  0  0  0 
 25 53  1  0  0  0  0 
 26 28  2  0  0  0  0 
 26 54  1  0  0  0  0 
 27 29  2  0  0  0  0 
 27 55  1  0  0  0  0 
 28 29  1  0  0  0  0 
 28 56  1  0  0  0  0 
 29 57  1  0  0  0  0 
M  END
> <cdk:Title>
53188891

> <cdk:Remark>
null

> <PUBCHEM_COMPOUND_CID>
53188891

> <PUBCHEM_COMPOUND_CANONICALIZED>
1

> <PUBCHEM_CACTVS_COMPLEXITY>
517

> <PUBCHEM_CACTVS_HBOND_ACCEPTOR>
5

> <PUBCHEM_CACTVS_HBOND_DONOR>
1

> <PUBCHEM_CACTVS_ROTATABLE_BOND>
7

> <PUBCHEM_CACTVS_SUBSKEYS>
AAADceB7oAAAAAAAAAAAAAAAAAAAAWAAAAA8WIAAAAAAAFgB8AAAHgAQAAAADAjBnwQ/sJ/MGACoAzd3dACCgC03EqAJ2KG4dNiIaOrA2TGUIIholgLIyOcQgIAOAAAAAAAAAAAAAAAAAAAAAAAAAAAAAA==

> <PUBCHEM_IUPAC_OPENEYE_NAME>
8-phenyl-N-[2-(4-propylpiperazin-1-yl)ethyl]imidazo[1,2-a]pyrazine-2-carboxamide

> <PUBCHEM_IUPAC_CAS_NAME>
8-phenyl-N-[2-(4-propyl-1-piperazinyl)ethyl]-2-imidazo[1,2-a]pyrazinecarboxamide

> <PUBCHEM_IUPAC_NAME>
8-phenyl-N-[2-(4-propylpiperazin-1-yl)ethyl]imidazo[1,2-a]pyrazine-2-carboxamide

> <PUBCHEM_IUPAC_SYSTEMATIC_NAME>
8-phenyl-N-[2-(4-propylpiperazin-1-yl)ethyl]imidazo[1,2-a]pyrazine-2-carboxamide

> <PUBCHEM_IUPAC_TRADITIONAL_NAME>
8-phenyl-N-[2-(4-propylpiperazino)ethyl]imidazo[1,2-a]pyrazine-2-carboxamide

> <PUBCHEM_IUPAC_INCHI>
InChI=1S/C22H28N6O/c1-2-10-26-13-15-27(16-14-26)11-8-24-22(29)19-17-28-12-9-23-20(21(28)25-19)18-6-4-3-5-7-18/h3-7,9,12,17H,2,8,10-11,13-16H2,1H3,(H,24,29)

> <PUBCHEM_IUPAC_INCHIKEY>
OKSODOUYNMNIAU-UHFFFAOYSA-N

> <PUBCHEM_XLOGP3_AA>
2.7

> <PUBCHEM_EXACT_MASS>
392.23246

> <PUBCHEM_MOLECULAR_FORMULA>
C22H28N6O

> <PUBCHEM_MOLECULAR_WEIGHT>
392.49732

> <PUBCHEM_OPENEYE_CAN_SMILES>
CCCN1CCN(CC1)CCNC(=O)C2=CN3C=CN=C(C3=N2)C4=CC=CC=C4

> <PUBCHEM_OPENEYE_ISO_SMILES>
CCCN1CCN(CC1)CCNC(=O)C2=CN3C=CN=C(C3=N2)C4=CC=CC=C4

> <PUBCHEM_CACTVS_TPSA>
65.8

> <PUBCHEM_MONOISOTOPIC_WEIGHT>
392.23246

> <PUBCHEM_TOTAL_CHARGE>
0

> <PUBCHEM_HEAVY_ATOM_COUNT>
29

> <PUBCHEM_ATOM_DEF_STEREO_COUNT>
0

> <PUBCHEM_ATOM_UDEF_STEREO_COUNT>
0

> <PUBCHEM_BOND_DEF_STEREO_COUNT>
0

> <PUBCHEM_BOND_UDEF_STEREO_COUNT>
0

> <PUBCHEM_ISOTOPIC_ATOM_COUNT>
0

> <PUBCHEM_COMPONENT_COUNT>
1

> <PUBCHEM_CACTVS_TAUTO_COUNT>
2

> <PUBCHEM_COORDINATE_TYPE>
1

> <PUBCHEM_BONDANNOTATIONS>
18  20  8

$$$$
