56229473
  CDK     1205141210

 48 50  0  0  0  0  0  0  0  0999 V2000
    6.2372   -5.1589    0.0000 Cl  0  0  0  0  0  0  0  0  0  0  0  0
    4.5981    3.6615    0.0000 O   0  0  0  0  0  0  0  0  0  0  0  0
    2.8660    2.6615    0.0000 O   0  0  0  0  0  0  0  0  0  0  0  0
    4.5981   -2.3385    0.0000 O   0  0  0  0  0  0  0  0  0  0  0  0
    4.5981    5.6615    0.0000 O   0  0  0  0  0  0  0  0  0  0  0  0
    5.4641   -0.8385    0.0000 N   0  0  0  0  0  0  0  0  0  0  0  0
    7.4128   -3.5409    0.0000 N   0  0  0  0  0  0  0  0  0  0  0  0
    6.4347   -3.3330    0.0000 N   0  0  0  0  0  0  0  0  0  0  0  0
    6.3301    5.6615    0.0000 N   0  0  0  0  0  0  0  0  0  0  0  0
    4.5981    0.6615    0.0000 C   0  0  0  0  0  0  0  0  0  0  0  0
    4.5981   -0.3385    0.0000 C   0  0  0  0  0  0  0  0  0  0  0  0
    3.7320    1.1615    0.0000 C   0  0  0  0  0  0  0  0  0  0  0  0
    5.4641    1.1615    0.0000 C   0  0  0  0  0  0  0  0  0  0  0  0
    3.7320    2.1615    0.0000 C   0  0  0  0  0  0  0  0  0  0  0  0
    4.5981    2.6615    0.0000 C   0  0  0  0  0  0  0  0  0  0  0  0
    6.3301   -2.3385    0.0000 C   0  0  0  0  0  0  0  0  0  0  0  0
    5.4641    2.1615    0.0000 C   0  0  0  0  0  0  0  0  0  0  0  0
    5.4641   -1.8385    0.0000 C   0  0  0  0  0  0  0  0  0  0  0  0
    7.8195   -4.4544    0.0000 C   0  0  0  0  0  0  0  0  0  0  0  0
    7.2437   -1.9317    0.0000 C   0  0  0  0  0  0  0  0  0  0  0  0
    7.9128   -2.6749    0.0000 C   0  0  0  0  0  0  0  0  0  0  0  0
    7.2318   -5.2635    0.0000 C   0  0  0  0  0  0  0  0  0  0  0  0
    8.8141   -4.5590    0.0000 C   0  0  0  0  0  0  0  0  0  0  0  0
    7.6385   -6.1770    0.0000 C   0  0  0  0  0  0  0  0  0  0  0  0
    9.2208   -5.4725    0.0000 C   0  0  0  0  0  0  0  0  0  0  0  0
    5.4641    4.1615    0.0000 C   0  0  0  0  0  0  0  0  0  0  0  0
    8.6330   -6.2815    0.0000 C   0  0  0  0  0  0  0  0  0  0  0  0
    2.0000    2.1615    0.0000 C   0  0  0  0  0  0  0  0  0  0  0  0
    5.4641    5.1615    0.0000 C   0  0  0  0  0  0  0  0  0  0  0  0
    3.9875   -0.2308    0.0000 H   0  0  0  0  0  0  0  0  0  0  0  0
    4.3860   -0.9211    0.0000 H   0  0  0  0  0  0  0  0  0  0  0  0
    3.1951    0.8515    0.0000 H   0  0  0  0  0  0  0  0  0  0  0  0
    6.0010    0.8515    0.0000 H   0  0  0  0  0  0  0  0  0  0  0  0
    6.0010   -0.5285    0.0000 H   0  0  0  0  0  0  0  0  0  0  0  0
    6.0010    2.4715    0.0000 H   0  0  0  0  0  0  0  0  0  0  0  0
    7.3726   -1.3253    0.0000 H   0  0  0  0  0  0  0  0  0  0  0  0
    8.5294   -2.6101    0.0000 H   0  0  0  0  0  0  0  0  0  0  0  0
    9.1785   -4.0574    0.0000 H   0  0  0  0  0  0  0  0  0  0  0  0
    7.2741   -6.6786    0.0000 H   0  0  0  0  0  0  0  0  0  0  0  0
    9.8374   -5.5373    0.0000 H   0  0  0  0  0  0  0  0  0  0  0  0
    5.6762    3.5789    0.0000 H   0  0  0  0  0  0  0  0  0  0  0  0
    6.0747    4.2692    0.0000 H   0  0  0  0  0  0  0  0  0  0  0  0
    8.8852   -6.8479    0.0000 H   0  0  0  0  0  0  0  0  0  0  0  0
    1.6900    2.6985    0.0000 H   0  0  0  0  0  0  0  0  0  0  0  0
    1.4631    1.8515    0.0000 H   0  0  0  0  0  0  0  0  0  0  0  0
    2.3100    1.6246    0.0000 H   0  0  0  0  0  0  0  0  0  0  0  0
    6.3301    6.2815    0.0000 H   0  0  0  0  0  0  0  0  0  0  0  0
    6.8671    5.3515    0.0000 H   0  0  0  0  0  0  0  0  0  0  0  0
  1 22  1  0  0  0  0 
  2 15  1  0  0  0  0 
  2 26  1  0  0  0  0 
  3 14  1  0  0  0  0 
  3 28  1  0  0  0  0 
  4 18  2  0  0  0  0 
  5 29  2  0  0  0  0 
  6 11  1  0  0  0  0 
  6 18  1  0  0  0  0 
  6 34  1  0  0  0  0 
  7  8  1  0  0  0  0 
  7 19  1  0  0  0  0 
  7 21  1  0  0  0  0 
  8 16  2  0  0  0  0 
  9 29  1  0  0  0  0 
  9 47  1  0  0  0  0 
  9 48  1  0  0  0  0 
 10 11  1  0  0  0  0 
 10 12  2  0  0  0  0 
 10 13  1  0  0  0  0 
 11 30  1  0  0  0  0 
 11 31  1  0  0  0  0 
 12 14  1  0  0  0  0 
 12 32  1  0  0  0  0 
 13 17  2  0  0  0  0 
 13 33  1  0  0  0  0 
 14 15  2  0  0  0  0 
 15 17  1  0  0  0  0 
 16 18  1  0  0  0  0 
 16 20  1  0  0  0  0 
 17 35  1  0  0  0  0 
 19 22  1  0  0  0  0 
 19 23  2  0  0  0  0 
 20 21  2  0  0  0  0 
 20 36  1  0  0  0  0 
 21 37  1  0  0  0  0 
 22 24  2  0  0  0  0 
 23 25  1  0  0  0  0 
 23 38  1  0  0  0  0 
 24 27  1  0  0  0  0 
 24 39  1  0  0  0  0 
 25 27  2  0  0  0  0 
 25 40  1  0  0  0  0 
 26 29  1  0  0  0  0 
 26 41  1  0  0  0  0 
 26 42  1  0  0  0  0 
 27 43  1  0  0  0  0 
 28 44  1  0  0  0  0 
 28 45  1  0  0  0  0 
 28 46  1  0  0  0  0 
M  END
> <cdk:Title>
56229473

> <cdk:Remark>
null

> <PUBCHEM_COMPOUND_CID>
56229473

> <PUBCHEM_COMPOUND_CANONICALIZED>
1

> <PUBCHEM_CACTVS_COMPLEXITY>
567

> <PUBCHEM_CACTVS_HBOND_ACCEPTOR>
5

> <PUBCHEM_CACTVS_HBOND_DONOR>
2

> <PUBCHEM_CACTVS_ROTATABLE_BOND>
8

> <PUBCHEM_CACTVS_SUBSKEYS>
AAADceB7uAAEAAAAAAAAAAAAAAAAAWAAAAAwYAAAAAAAAAAB0AAAHgIYAAAADA7hniY+xpLIBACqAzV3VAKSDCA3pwAYmKH+7tgPZvLF99/XvSrk3hHK6Ye00BIOIAABAAAAQBBAAAIAAACAIAAAAAAAAA==

> <PUBCHEM_IUPAC_OPENEYE_NAME>
N-[[4-(2-amino-2-oxo-ethoxy)-3-methoxy-phenyl]methyl]-1-(2-chlorophenyl)pyrazole-3-carboxamide

> <PUBCHEM_IUPAC_CAS_NAME>
N-[[4-(2-amino-2-oxoethoxy)-3-methoxyphenyl]methyl]-1-(2-chlorophenyl)-3-pyrazolecarboxamide

> <PUBCHEM_IUPAC_NAME>
N-[[4-(2-amino-2-oxoethoxy)-3-methoxyphenyl]methyl]-1-(2-chlorophenyl)pyrazole-3-carboxamide

> <PUBCHEM_IUPAC_SYSTEMATIC_NAME>
N-[[4-(2-azanyl-2-oxidanylidene-ethoxy)-3-methoxy-phenyl]methyl]-1-(2-chlorophenyl)pyrazole-3-carboxamide

> <PUBCHEM_IUPAC_TRADITIONAL_NAME>
N-[4-(2-amino-2-keto-ethoxy)-3-methoxy-benzyl]-1-(2-chlorophenyl)pyrazole-3-carboxamide

> <PUBCHEM_IUPAC_INCHI>
InChI=1S/C20H19ClN4O4/c1-28-18-10-13(6-7-17(18)29-12-19(22)26)11-23-20(27)15-8-9-25(24-15)16-5-3-2-4-14(16)21/h2-10H,11-12H2,1H3,(H2,22,26)(H,23,27)

> <PUBCHEM_IUPAC_INCHIKEY>
AGEZJODCQQGPBB-UHFFFAOYSA-N

> <PUBCHEM_XLOGP3_AA>
2.5

> <PUBCHEM_EXACT_MASS>
414.109483

> <PUBCHEM_MOLECULAR_FORMULA>
C20H19ClN4O4

> <PUBCHEM_MOLECULAR_WEIGHT>
414.84226

> <PUBCHEM_OPENEYE_CAN_SMILES>
COC1=C(C=CC(=C1)CNC(=O)C2=NN(C=C2)C3=CC=CC=C3Cl)OCC(=O)N

> <PUBCHEM_OPENEYE_ISO_SMILES>
COC1=C(C=CC(=C1)CNC(=O)C2=NN(C=C2)C3=CC=CC=C3Cl)OCC(=O)N

> <PUBCHEM_CACTVS_TPSA>
109

> <PUBCHEM_MONOISOTOPIC_WEIGHT>
414.109483

> <PUBCHEM_TOTAL_CHARGE>
0

> <PUBCHEM_HEAVY_ATOM_COUNT>
29

> <PUBCHEM_ATOM_DEF_STEREO_COUNT>
0

> <PUBCHEM_ATOM_UDEF_STEREO_COUNT>
0

> <PUBCHEM_BOND_DEF_STEREO_COUNT>
0

> <PUBCHEM_BOND_UDEF_STEREO_COUNT>
0

> <PUBCHEM_ISOTOPIC_ATOM_COUNT>
0

> <PUBCHEM_COMPONENT_COUNT>
1

> <PUBCHEM_CACTVS_TAUTO_COUNT>
6

> <PUBCHEM_COORDINATE_TYPE>
1

> <PUBCHEM_BONDANNOTATIONS>
10  12  8

$$$$
34637812
  CDK     1205141210

 38 40  0  0  0  0  0  0  0  0999 V2000
    8.9757    0.2853    0.0000 S   0  0  0  0  0  0  0  0  0  0  0  0
    2.0000   -0.8080    0.0000 F   0  0  0  0  0  0  0  0  0  0  0  0
    2.8660   -2.3080    0.0000 F   0  0  0  0  0  0  0  0  0  0  0  0
    9.5516    2.8080    0.0000 O   0  0  0  0  0  0  0  0  0  0  0  0
    3.7320   -0.8080    0.0000 O   0  0  0  0  0  0  0  0  0  0  0  0
    8.1667    1.6865    0.0000 N   0  0  0  0  0  0  0  0  0  0  0  0
    7.1962    0.1920    0.0000 N   0  0  0  0  0  0  0  0  0  0  0  0
    6.3301    0.6920    0.0000 N   0  0  0  0  0  0  0  0  0  0  0  0
    9.6448    1.0284    0.0000 C   0  0  2  0  0  0  0  0  0  0  0  0
   10.6394    0.9239    0.0000 C   0  0  0  0  0  0  0  0  0  0  0  0
    9.1448    1.8944    0.0000 C   0  0  0  0  0  0  0  0  0  0  0  0
   11.0461    0.0103    0.0000 C   0  0  0  0  0  0  0  0  0  0  0  0
   11.2272    1.7329    0.0000 C   0  0  0  0  0  0  0  0  0  0  0  0
    8.0622    0.6920    0.0000 C   0  0  0  0  0  0  0  0  0  0  0  0
   12.0406   -0.0942    0.0000 C   0  0  0  0  0  0  0  0  0  0  0  0
   12.2217    1.6284    0.0000 C   0  0  0  0  0  0  0  0  0  0  0  0
   12.6284    0.7148    0.0000 C   0  0  0  0  0  0  0  0  0  0  0  0
    5.4641   -0.8080    0.0000 C   0  0  0  0  0  0  0  0  0  0  0  0
    4.5981   -1.3080    0.0000 C   0  0  0  0  0  0  0  0  0  0  0  0
    6.3301   -1.3080    0.0000 C   0  0  0  0  0  0  0  0  0  0  0  0
    5.4641    0.1920    0.0000 C   0  0  0  0  0  0  0  0  0  0  0  0
    4.5981   -2.3080    0.0000 C   0  0  0  0  0  0  0  0  0  0  0  0
    6.3301   -2.3080    0.0000 C   0  0  0  0  0  0  0  0  0  0  0  0
    5.4641   -2.8080    0.0000 C   0  0  0  0  0  0  0  0  0  0  0  0
    2.8660   -1.3080    0.0000 C   0  0  0  0  0  0  0  0  0  0  0  0
    9.9825    1.5484    0.0000 H   0  0  0  0  0  0  0  0  0  0  0  0
   10.6817   -0.4912    0.0000 H   0  0  0  0  0  0  0  0  0  0  0  0
   10.9750    2.2993    0.0000 H   0  0  0  0  0  0  0  0  0  0  0  0
   12.2928   -0.6606    0.0000 H   0  0  0  0  0  0  0  0  0  0  0  0
   12.5861    2.1300    0.0000 H   0  0  0  0  0  0  0  0  0  0  0  0
   13.2450    0.6500    0.0000 H   0  0  0  0  0  0  0  0  0  0  0  0
    7.1962   -0.4280    0.0000 H   0  0  0  0  0  0  0  0  0  0  0  0
    6.8671   -0.9980    0.0000 H   0  0  0  0  0  0  0  0  0  0  0  0
    4.9272    0.5020    0.0000 H   0  0  0  0  0  0  0  0  0  0  0  0
    4.0611   -2.6180    0.0000 H   0  0  0  0  0  0  0  0  0  0  0  0
    6.8671   -2.6180    0.0000 H   0  0  0  0  0  0  0  0  0  0  0  0
    5.4641   -3.4280    0.0000 H   0  0  0  0  0  0  0  0  0  0  0  0
    2.8660   -0.6880    0.0000 H   0  0  0  0  0  0  0  0  0  0  0  0
  1  9  1  0  0  0  0 
  1 14  1  0  0  0  0 
  2 25  1  0  0  0  0 
  3 25  1  0  0  0  0 
  4 11  2  0  0  0  0 
  5 19  1  0  0  0  0 
  5 25  1  0  0  0  0 
  6 11  1  0  0  0  0 
  6 14  2  0  0  0  0 
  7  8  1  0  0  0  0 
  7 14  1  0  0  0  0 
  7 32  1  0  0  0  0 
  8 21  2  0  0  0  0 
  9 10  1  1  0  0  0 
  9 11  1  0  0  0  0 
  9 26  1  0  0  0  0 
 10 12  2  0  0  0  0 
 10 13  1  0  0  0  0 
 12 15  1  0  0  0  0 
 12 27  1  0  0  0  0 
 13 16  2  0  0  0  0 
 13 28  1  0  0  0  0 
 15 17  2  0  0  0  0 
 15 29  1  0  0  0  0 
 16 17  1  0  0  0  0 
 16 30  1  0  0  0  0 
 17 31  1  0  0  0  0 
 18 19  1  0  0  0  0 
 18 20  2  0  0  0  0 
 18 21  1  0  0  0  0 
 19 22  2  0  0  0  0 
 20 23  1  0  0  0  0 
 20 33  1  0  0  0  0 
 21 34  1  0  0  0  0 
 22 24  1  0  0  0  0 
 22 35  1  0  0  0  0 
 23 24  2  0  0  0  0 
 23 36  1  0  0  0  0 
 24 37  1  0  0  0  0 
 25 38  1  0  0  0  0 
M  END
> <cdk:Title>
34637812

> <cdk:Remark>
null

> <PUBCHEM_COMPOUND_CID>
34637812

> <PUBCHEM_COMPOUND_CANONICALIZED>
1

> <PUBCHEM_CACTVS_COMPLEXITY>
524

> <PUBCHEM_CACTVS_HBOND_ACCEPTOR>
6

> <PUBCHEM_CACTVS_HBOND_DONOR>
1

> <PUBCHEM_CACTVS_ROTATABLE_BOND>
6

> <PUBCHEM_CACTVS_SUBSKEYS>
AAADccB7MYBAAAAAAAAAAAAAAAAAAQAAAAAwYAAAAAAAAAABQAAAHwQYAAAADATF2BaxBoJiBAioAjFzNAASGAFgIBAIiAEmCJgMJrKktRuAMCAkyBEIqAeYyKCOAAAAAAAIAAAAAAAAABAAAAAAAAAAAA==

> <PUBCHEM_IUPAC_OPENEYE_NAME>
(5R)-2-[(2Z)-2-[[2-(difluoromethoxy)phenyl]methylene]hydrazino]-5-phenyl-thiazol-4-one

> <PUBCHEM_IUPAC_CAS_NAME>
(5R)-2-[(2Z)-2-[[2-(difluoromethoxy)phenyl]methylidene]hydrazinyl]-5-phenyl-4-thiazolone

> <PUBCHEM_IUPAC_NAME>
(5R)-2-[(2Z)-2-[[2-(difluoromethoxy)phenyl]methylidene]hydrazinyl]-5-phenyl-1,3-thiazol-4-one

> <PUBCHEM_IUPAC_SYSTEMATIC_NAME>
(5R)-2-[(2Z)-2-[[2-[bis(fluoranyl)methoxy]phenyl]methylidene]hydrazinyl]-5-phenyl-1,3-thiazol-4-one

> <PUBCHEM_IUPAC_TRADITIONAL_NAME>
(5R)-2-[(N'Z)-N'-[2-(difluoromethoxy)benzylidene]hydrazino]-5-phenyl-2-thiazolin-4-one

> <PUBCHEM_IUPAC_INCHI>
InChI=1S/C17H13F2N3O2S/c18-16(19)24-13-9-5-4-8-12(13)10-20-22-17-21-15(23)14(25-17)11-6-2-1-3-7-11/h1-10,14,16H,(H,21,22,23)/b20-10-/t14-/m1/s1

> <PUBCHEM_IUPAC_INCHIKEY>
SEPFCYQCUTYXJG-IPZKOZABSA-N

> <PUBCHEM_XLOGP3_AA>
4.4

> <PUBCHEM_EXACT_MASS>
361.069654

> <PUBCHEM_MOLECULAR_FORMULA>
C17H13F2N3O2S

> <PUBCHEM_MOLECULAR_WEIGHT>
361.365826

> <PUBCHEM_OPENEYE_CAN_SMILES>
C1=CC=C(C=C1)C2C(=O)N=C(S2)NN=CC3=CC=CC=C3OC(F)F

> <PUBCHEM_OPENEYE_ISO_SMILES>
C1=CC=C(C=C1)[C@@H]2C(=O)N=C(S2)N/N=C\C3=CC=CC=C3OC(F)F

> <PUBCHEM_CACTVS_TPSA>
88.4

> <PUBCHEM_MONOISOTOPIC_WEIGHT>
361.069654

> <PUBCHEM_TOTAL_CHARGE>
0

> <PUBCHEM_HEAVY_ATOM_COUNT>
25

> <PUBCHEM_ATOM_DEF_STEREO_COUNT>
1

> <PUBCHEM_ATOM_UDEF_STEREO_COUNT>
0

> <PUBCHEM_BOND_DEF_STEREO_COUNT>
1

> <PUBCHEM_BOND_UDEF_STEREO_COUNT>
0

> <PUBCHEM_ISOTOPIC_ATOM_COUNT>
0

> <PUBCHEM_COMPONENT_COUNT>
1

> <PUBCHEM_CACTVS_TAUTO_COUNT>
5

> <PUBCHEM_COORDINATE_TYPE>
1

> <PUBCHEM_BONDANNOTATIONS>
10  12  8

$$$$
56229473
  CDK     1205141211

 48 50  0  0  0  0  0  0  0  0999 V2000
    6.2372   -5.1589    0.0000 Cl  0  0  0  0  0  0  0  0  0  0  0  0
    4.5981    3.6615    0.0000 O   0  0  0  0  0  0  0  0  0  0  0  0
    2.8660    2.6615    0.0000 O   0  0  0  0  0  0  0  0  0  0  0  0
    4.5981   -2.3385    0.0000 O   0  0  0  0  0  0  0  0  0  0  0  0
    4.5981    5.6615    0.0000 O   0  0  0  0  0  0  0  0  0  0  0  0
    5.4641   -0.8385    0.0000 N   0  0  0  0  0  0  0  0  0  0  0  0
    7.4128   -3.5409    0.0000 N   0  0  0  0  0  0  0  0  0  0  0  0
    6.4347   -3.3330    0.0000 N   0  0  0  0  0  0  0  0  0  0  0  0
    6.3301    5.6615    0.0000 N   0  0  0  0  0  0  0  0  0  0  0  0
    4.5981    0.6615    0.0000 C   0  0  0  0  0  0  0  0  0  0  0  0
    4.5981   -0.3385    0.0000 C   0  0  0  0  0  0  0  0  0  0  0  0
    3.7320    1.1615    0.0000 C   0  0  0  0  0  0  0  0  0  0  0  0
    5.4641    1.1615    0.0000 C   0  0  0  0  0  0  0  0  0  0  0  0
    3.7320    2.1615    0.0000 C   0  0  0  0  0  0  0  0  0  0  0  0
    4.5981    2.6615    0.0000 C   0  0  0  0  0  0  0  0  0  0  0  0
    6.3301   -2.3385    0.0000 C   0  0  0  0  0  0  0  0  0  0  0  0
    5.4641    2.1615    0.0000 C   0  0  0  0  0  0  0  0  0  0  0  0
    5.4641   -1.8385    0.0000 C   0  0  0  0  0  0  0  0  0  0  0  0
    7.8195   -4.4544    0.0000 C   0  0  0  0  0  0  0  0  0  0  0  0
    7.2437   -1.9317    0.0000 C   0  0  0  0  0  0  0  0  0  0  0  0
    7.9128   -2.6749    0.0000 C   0  0  0  0  0  0  0  0  0  0  0  0
    7.2318   -5.2635    0.0000 C   0  0  0  0  0  0  0  0  0  0  0  0
    8.8141   -4.5590    0.0000 C   0  0  0  0  0  0  0  0  0  0  0  0
    7.6385   -6.1770    0.0000 C   0  0  0  0  0  0  0  0  0  0  0  0
    9.2208   -5.4725    0.0000 C   0  0  0  0  0  0  0  0  0  0  0  0
    5.4641    4.1615    0.0000 C   0  0  0  0  0  0  0  0  0  0  0  0
    8.6330   -6.2815    0.0000 C   0  0  0  0  0  0  0  0  0  0  0  0
    2.0000    2.1615    0.0000 C   0  0  0  0  0  0  0  0  0  0  0  0
    5.4641    5.1615    0.0000 C   0  0  0  0  0  0  0  0  0  0  0  0
    3.9875   -0.2308    0.0000 H   0  0  0  0  0  0  0  0  0  0  0  0
    4.3860   -0.9211    0.0000 H   0  0  0  0  0  0  0  0  0  0  0  0
    3.1951    0.8515    0.0000 H   0  0  0  0  0  0  0  0  0  0  0  0
    6.0010    0.8515    0.0000 H   0  0  0  0  0  0  0  0  0  0  0  0
    6.0010   -0.5285    0.0000 H   0  0  0  0  0  0  0  0  0  0  0  0
    6.0010    2.4715    0.0000 H   0  0  0  0  0  0  0  0  0  0  0  0
    7.3726   -1.3253    0.0000 H   0  0  0  0  0  0  0  0  0  0  0  0
    8.5294   -2.6101    0.0000 H   0  0  0  0  0  0  0  0  0  0  0  0
    9.1785   -4.0574    0.0000 H   0  0  0  0  0  0  0  0  0  0  0  0
    7.2741   -6.6786    0.0000 H   0  0  0  0  0  0  0  0  0  0  0  0
    9.8374   -5.5373    0.0000 H   0  0  0  0  0  0  0  0  0  0  0  0
    5.6762    3.5789    0.0000 H   0  0  0  0  0  0  0  0  0  0  0  0
    6.0747    4.2692    0.0000 H   0  0  0  0  0  0  0  0  0  0  0  0
    8.8852   -6.8479    0.0000 H   0  0  0  0  0  0  0  0  0  0  0  0
    1.6900    2.6985    0.0000 H   0  0  0  0  0  0  0  0  0  0  0  0
    1.4631    1.8515    0.0000 H   0  0  0  0  0  0  0  0  0  0  0  0
    2.3100    1.6246    0.0000 H   0  0  0  0  0  0  0  0  0  0  0  0
    6.3301    6.2815    0.0000 H   0  0  0  0  0  0  0  0  0  0  0  0
    6.8671    5.3515    0.0000 H   0  0  0  0  0  0  0  0  0  0  0  0
  1 22  1  0  0  0  0 
  2 15  1  0  0  0  0 
  2 26  1  0  0  0  0 
  3 14  1  0  0  0  0 
  3 28  1  0  0  0  0 
  4 18  2  0  0  0  0 
  5 29  2  0  0  0  0 
  6 11  1  0  0  0  0 
  6 18  1  0  0  0  0 
  6 34  1  0  0  0  0 
  7  8  1  0  0  0  0 
  7 19  1  0  0  0  0 
  7 21  1  0  0  0  0 
  8 16  2  0  0  0  0 
  9 29  1  0  0  0  0 
  9 47  1  0  0  0  0 
  9 48  1  0  0  0  0 
 10 11  1  0  0  0  0 
 10 12  2  0  0  0  0 
 10 13  1  0  0  0  0 
 11 30  1  0  0  0  0 
 11 31  1  0  0  0  0 
 12 14  1  0  0  0  0 
 12 32  1  0  0  0  0 
 13 17  2  0  0  0  0 
 13 33  1  0  0  0  0 
 14 15  2  0  0  0  0 
 15 17  1  0  0  0  0 
 16 18  1  0  0  0  0 
 16 20  1  0  0  0  0 
 17 35  1  0  0  0  0 
 19 22  1  0  0  0  0 
 19 23  2  0  0  0  0 
 20 21  2  0  0  0  0 
 20 36  1  0  0  0  0 
 21 37  1  0  0  0  0 
 22 24  2  0  0  0  0 
 23 25  1  0  0  0  0 
 23 38  1  0  0  0  0 
 24 27  1  0  0  0  0 
 24 39  1  0  0  0  0 
 25 27  2  0  0  0  0 
 25 40  1  0  0  0  0 
 26 29  1  0  0  0  0 
 26 41  1  0  0  0  0 
 26 42  1  0  0  0  0 
 27 43  1  0  0  0  0 
 28 44  1  0  0  0  0 
 28 45  1  0  0  0  0 
 28 46  1  0  0  0  0 
M  END
> <cdk:Title>
56229473

> <cdk:Remark>
null

> <PUBCHEM_COMPOUND_CID>
56229473

> <PUBCHEM_COMPOUND_CANONICALIZED>
1

> <PUBCHEM_CACTVS_COMPLEXITY>
567

> <PUBCHEM_CACTVS_HBOND_ACCEPTOR>
5

> <PUBCHEM_CACTVS_HBOND_DONOR>
2

> <PUBCHEM_CACTVS_ROTATABLE_BOND>
8

> <PUBCHEM_CACTVS_SUBSKEYS>
AAADceB7uAAEAAAAAAAAAAAAAAAAAWAAAAAwYAAAAAAAAAAB0AAAHgIYAAAADA7hniY+xpLIBACqAzV3VAKSDCA3pwAYmKH+7tgPZvLF99/XvSrk3hHK6Ye00BIOIAABAAAAQBBAAAIAAACAIAAAAAAAAA==

> <PUBCHEM_IUPAC_OPENEYE_NAME>
N-[[4-(2-amino-2-oxo-ethoxy)-3-methoxy-phenyl]methyl]-1-(2-chlorophenyl)pyrazole-3-carboxamide

> <PUBCHEM_IUPAC_CAS_NAME>
N-[[4-(2-amino-2-oxoethoxy)-3-methoxyphenyl]methyl]-1-(2-chlorophenyl)-3-pyrazolecarboxamide

> <PUBCHEM_IUPAC_NAME>
N-[[4-(2-amino-2-oxoethoxy)-3-methoxyphenyl]methyl]-1-(2-chlorophenyl)pyrazole-3-carboxamide

> <PUBCHEM_IUPAC_SYSTEMATIC_NAME>
N-[[4-(2-azanyl-2-oxidanylidene-ethoxy)-3-methoxy-phenyl]methyl]-1-(2-chlorophenyl)pyrazole-3-carboxamide

> <PUBCHEM_IUPAC_TRADITIONAL_NAME>
N-[4-(2-amino-2-keto-ethoxy)-3-methoxy-benzyl]-1-(2-chlorophenyl)pyrazole-3-carboxamide

> <PUBCHEM_IUPAC_INCHI>
InChI=1S/C20H19ClN4O4/c1-28-18-10-13(6-7-17(18)29-12-19(22)26)11-23-20(27)15-8-9-25(24-15)16-5-3-2-4-14(16)21/h2-10H,11-12H2,1H3,(H2,22,26)(H,23,27)

> <PUBCHEM_IUPAC_INCHIKEY>
AGEZJODCQQGPBB-UHFFFAOYSA-N

> <PUBCHEM_XLOGP3_AA>
2.5

> <PUBCHEM_EXACT_MASS>
414.109483

> <PUBCHEM_MOLECULAR_FORMULA>
C20H19ClN4O4

> <PUBCHEM_MOLECULAR_WEIGHT>
414.84226

> <PUBCHEM_OPENEYE_CAN_SMILES>
COC1=C(C=CC(=C1)CNC(=O)C2=NN(C=C2)C3=CC=CC=C3Cl)OCC(=O)N

> <PUBCHEM_OPENEYE_ISO_SMILES>
COC1=C(C=CC(=C1)CNC(=O)C2=NN(C=C2)C3=CC=CC=C3Cl)OCC(=O)N

> <PUBCHEM_CACTVS_TPSA>
109

> <PUBCHEM_MONOISOTOPIC_WEIGHT>
414.109483

> <PUBCHEM_TOTAL_CHARGE>
0

> <PUBCHEM_HEAVY_ATOM_COUNT>
29

> <PUBCHEM_ATOM_DEF_STEREO_COUNT>
0

> <PUBCHEM_ATOM_UDEF_STEREO_COUNT>
0

> <PUBCHEM_BOND_DEF_STEREO_COUNT>
0

> <PUBCHEM_BOND_UDEF_STEREO_COUNT>
0

> <PUBCHEM_ISOTOPIC_ATOM_COUNT>
0

> <PUBCHEM_COMPONENT_COUNT>
1

> <PUBCHEM_CACTVS_TAUTO_COUNT>
6

> <PUBCHEM_COORDINATE_TYPE>
1

> <PUBCHEM_BONDANNOTATIONS>
10  12  8

$$$$
