63637020
  CDK     1205141210

 36 38  0  0  0  0  0  0  0  0999 V2000
    4.6783   -0.7588    0.0000 N   0  0  0  0  0  0  0  0  0  0  0  0
    4.6783   -2.3683    0.0000 N   0  0  0  0  0  0  0  0  0  0  0  0
    6.2781    1.3485    0.0000 N   0  0  0  0  0  0  0  0  0  0  0  0
    7.2297    1.6558    0.0000 N   0  0  0  0  0  0  0  0  0  0  0  0
    7.7619   -2.4296    0.0000 N   0  0  0  0  0  0  0  0  0  0  0  0
    4.9889    0.1917    0.0000 C   0  0  0  0  0  0  0  0  0  0  0  0
    5.2619   -1.5635    0.0000 C   0  0  0  0  0  0  0  0  0  0  0  0
    3.7320   -1.0635    0.0000 C   0  0  0  0  0  0  0  0  0  0  0  0
    5.9674    0.3979    0.0000 C   0  0  0  0  0  0  0  0  0  0  0  0
    6.2619   -1.5635    0.0000 C   0  0  0  0  0  0  0  0  0  0  0  0
    3.7320   -2.0635    0.0000 C   0  0  0  0  0  0  0  0  0  0  0  0
    2.8660   -0.5635    0.0000 C   0  0  0  0  0  0  0  0  0  0  0  0
    6.7619   -2.4296    0.0000 C   0  0  0  0  0  0  0  0  0  0  0  0
    2.8660   -2.5635    0.0000 C   0  0  0  0  0  0  0  0  0  0  0  0
    2.0000   -1.0635    0.0000 C   0  0  0  0  0  0  0  0  0  0  0  0
    2.0000   -2.0635    0.0000 C   0  0  0  0  0  0  0  0  0  0  0  0
    5.6917    2.1585    0.0000 C   0  0  0  0  0  0  0  0  0  0  0  0
    6.2809    2.9665    0.0000 C   0  0  0  0  0  0  0  0  0  0  0  0
    7.2314    2.6558    0.0000 C   0  0  0  0  0  0  0  0  0  0  0  0
    4.9684    0.8114    0.0000 H   0  0  0  0  0  0  0  0  0  0  0  0
    4.3751    0.2791    0.0000 H   0  0  0  0  0  0  0  0  0  0  0  0
    5.9880   -0.2217    0.0000 H   0  0  0  0  0  0  0  0  0  0  0  0
    6.5812    0.3106    0.0000 H   0  0  0  0  0  0  0  0  0  0  0  0
    6.8445   -1.3515    0.0000 H   0  0  0  0  0  0  0  0  0  0  0  0
    6.1542   -0.9530    0.0000 H   0  0  0  0  0  0  0  0  0  0  0  0
    2.8660    0.0565    0.0000 H   0  0  0  0  0  0  0  0  0  0  0  0
    6.1793   -2.6416    0.0000 H   0  0  0  0  0  0  0  0  0  0  0  0
    6.8695   -3.0401    0.0000 H   0  0  0  0  0  0  0  0  0  0  0  0
    2.8660   -3.1835    0.0000 H   0  0  0  0  0  0  0  0  0  0  0  0
    1.4631   -0.7535    0.0000 H   0  0  0  0  0  0  0  0  0  0  0  0
    1.4631   -2.3735    0.0000 H   0  0  0  0  0  0  0  0  0  0  0  0
    5.0717    2.1596    0.0000 H   0  0  0  0  0  0  0  0  0  0  0  0
    8.0719   -2.9665    0.0000 H   0  0  0  0  0  0  0  0  0  0  0  0
    8.0719   -1.8926    0.0000 H   0  0  0  0  0  0  0  0  0  0  0  0
    6.0903    3.5565    0.0000 H   0  0  0  0  0  0  0  0  0  0  0  0
    7.7336    3.0194    0.0000 H   0  0  0  0  0  0  0  0  0  0  0  0
  1  6  1  0  0  0  0 
  1  7  1  0  0  0  0 
  1  8  1  0  0  0  0 
  2  7  2  0  0  0  0 
  2 11  1  0  0  0  0 
  3  4  1  0  0  0  0 
  3  9  1  0  0  0  0 
  3 17  1  0  0  0  0 
  4 19  2  0  0  0  0 
  5 13  1  0  0  0  0 
  5 33  1  0  0  0  0 
  5 34  1  0  0  0  0 
  6  9  1  0  0  0  0 
  6 20  1  0  0  0  0 
  6 21  1  0  0  0  0 
  7 10  1  0  0  0  0 
  8 11  1  0  0  0  0 
  8 12  2  0  0  0  0 
  9 22  1  0  0  0  0 
  9 23  1  0  0  0  0 
 10 13  1  0  0  0  0 
 10 24  1  0  0  0  0 
 10 25  1  0  0  0  0 
 11 14  2  0  0  0  0 
 12 15  1  0  0  0  0 
 12 26  1  0  0  0  0 
 13 27  1  0  0  0  0 
 13 28  1  0  0  0  0 
 14 16  1  0  0  0  0 
 14 29  1  0  0  0  0 
 15 16  2  0  0  0  0 
 15 30  1  0  0  0  0 
 16 31  1  0  0  0  0 
 17 18  2  0  0  0  0 
 17 32  1  0  0  0  0 
 18 19  1  0  0  0  0 
 18 35  1  0  0  0  0 
 19 36  1  0  0  0  0 
M  END
> <cdk:Title>
63637020

> <cdk:Remark>
null

> <PUBCHEM_COMPOUND_CID>
63637020

> <PUBCHEM_COMPOUND_CANONICALIZED>
1

> <PUBCHEM_CACTVS_COMPLEXITY>
285

> <PUBCHEM_CACTVS_HBOND_ACCEPTOR>
3

> <PUBCHEM_CACTVS_HBOND_DONOR>
1

> <PUBCHEM_CACTVS_ROTATABLE_BOND>
5

> <PUBCHEM_CACTVS_SUBSKEYS>
AAADceBzgAAAAAAAAAAAAAAAAAAAAWLAAAAwAAAAAAAAAFgB/AAAHAAYAAAACAjBFwQ90LdMEACiATZnZACShC0xkqAZ2KA4dJiIaKLA2dGUpAhomALIyCcQAAAAAAAAAAAAACAAAAAAAAAAQAAAAAAAAA==

> <PUBCHEM_IUPAC_OPENEYE_NAME>
2-[1-(2-pyrazol-1-ylethyl)benzimidazol-2-yl]ethanamine

> <PUBCHEM_IUPAC_CAS_NAME>
2-[1-[2-(1-pyrazolyl)ethyl]-2-benzimidazolyl]ethanamine

> <PUBCHEM_IUPAC_NAME>
2-[1-(2-pyrazol-1-ylethyl)benzimidazol-2-yl]ethanamine

> <PUBCHEM_IUPAC_SYSTEMATIC_NAME>
2-[1-(2-pyrazol-1-ylethyl)benzimidazol-2-yl]ethanamine

> <PUBCHEM_IUPAC_TRADITIONAL_NAME>
2-[1-(2-pyrazol-1-ylethyl)benzimidazol-2-yl]ethylamine

> <PUBCHEM_IUPAC_INCHI>
InChI=1S/C14H17N5/c15-7-6-14-17-12-4-1-2-5-13(12)19(14)11-10-18-9-3-8-16-18/h1-5,8-9H,6-7,10-11,15H2

> <PUBCHEM_IUPAC_INCHIKEY>
AROSYIJOHPZUJJ-UHFFFAOYSA-N

> <PUBCHEM_XLOGP3_AA>
0.7

> <PUBCHEM_EXACT_MASS>
255.148396

> <PUBCHEM_MOLECULAR_FORMULA>
C14H17N5

> <PUBCHEM_MOLECULAR_WEIGHT>
255.31828

> <PUBCHEM_OPENEYE_CAN_SMILES>
C1=CC=C2C(=C1)N=C(N2CCN3C=CC=N3)CCN

> <PUBCHEM_OPENEYE_ISO_SMILES>
C1=CC=C2C(=C1)N=C(N2CCN3C=CC=N3)CCN

> <PUBCHEM_CACTVS_TPSA>
61.7

> <PUBCHEM_MONOISOTOPIC_WEIGHT>
255.148396

> <PUBCHEM_TOTAL_CHARGE>
0

> <PUBCHEM_HEAVY_ATOM_COUNT>
19

> <PUBCHEM_ATOM_DEF_STEREO_COUNT>
0

> <PUBCHEM_ATOM_UDEF_STEREO_COUNT>
0

> <PUBCHEM_BOND_DEF_STEREO_COUNT>
0

> <PUBCHEM_BOND_UDEF_STEREO_COUNT>
0

> <PUBCHEM_ISOTOPIC_ATOM_COUNT>
0

> <PUBCHEM_COMPONENT_COUNT>
1

> <PUBCHEM_CACTVS_TAUTO_COUNT>
2

> <PUBCHEM_COORDINATE_TYPE>
1

> <PUBCHEM_BONDANNOTATIONS>
1  7  8

$$$$
63637020
  CDK     1205141211

 36 38  0  0  0  0  0  0  0  0999 V2000
    4.6783   -0.7588    0.0000 N   0  0  0  0  0  0  0  0  0  0  0  0
    4.6783   -2.3683    0.0000 N   0  0  0  0  0  0  0  0  0  0  0  0
    6.2781    1.3485    0.0000 N   0  0  0  0  0  0  0  0  0  0  0  0
    7.2297    1.6558    0.0000 N   0  0  0  0  0  0  0  0  0  0  0  0
    7.7619   -2.4296    0.0000 N   0  0  0  0  0  0  0  0  0  0  0  0
    4.9889    0.1917    0.0000 C   0  0  0  0  0  0  0  0  0  0  0  0
    5.2619   -1.5635    0.0000 C   0  0  0  0  0  0  0  0  0  0  0  0
    3.7320   -1.0635    0.0000 C   0  0  0  0  0  0  0  0  0  0  0  0
    5.9674    0.3979    0.0000 C   0  0  0  0  0  0  0  0  0  0  0  0
    6.2619   -1.5635    0.0000 C   0  0  0  0  0  0  0  0  0  0  0  0
    3.7320   -2.0635    0.0000 C   0  0  0  0  0  0  0  0  0  0  0  0
    2.8660   -0.5635    0.0000 C   0  0  0  0  0  0  0  0  0  0  0  0
    6.7619   -2.4296    0.0000 C   0  0  0  0  0  0  0  0  0  0  0  0
    2.8660   -2.5635    0.0000 C   0  0  0  0  0  0  0  0  0  0  0  0
    2.0000   -1.0635    0.0000 C   0  0  0  0  0  0  0  0  0  0  0  0
    2.0000   -2.0635    0.0000 C   0  0  0  0  0  0  0  0  0  0  0  0
    5.6917    2.1585    0.0000 C   0  0  0  0  0  0  0  0  0  0  0  0
    6.2809    2.9665    0.0000 C   0  0  0  0  0  0  0  0  0  0  0  0
    7.2314    2.6558    0.0000 C   0  0  0  0  0  0  0  0  0  0  0  0
    4.9684    0.8114    0.0000 H   0  0  0  0  0  0  0  0  0  0  0  0
    4.3751    0.2791    0.0000 H   0  0  0  0  0  0  0  0  0  0  0  0
    5.9880   -0.2217    0.0000 H   0  0  0  0  0  0  0  0  0  0  0  0
    6.5812    0.3106    0.0000 H   0  0  0  0  0  0  0  0  0  0  0  0
    6.8445   -1.3515    0.0000 H   0  0  0  0  0  0  0  0  0  0  0  0
    6.1542   -0.9530    0.0000 H   0  0  0  0  0  0  0  0  0  0  0  0
    2.8660    0.0565    0.0000 H   0  0  0  0  0  0  0  0  0  0  0  0
    6.1793   -2.6416    0.0000 H   0  0  0  0  0  0  0  0  0  0  0  0
    6.8695   -3.0401    0.0000 H   0  0  0  0  0  0  0  0  0  0  0  0
    2.8660   -3.1835    0.0000 H   0  0  0  0  0  0  0  0  0  0  0  0
    1.4631   -0.7535    0.0000 H   0  0  0  0  0  0  0  0  0  0  0  0
    1.4631   -2.3735    0.0000 H   0  0  0  0  0  0  0  0  0  0  0  0
    5.0717    2.1596    0.0000 H   0  0  0  0  0  0  0  0  0  0  0  0
    8.0719   -2.9665    0.0000 H   0  0  0  0  0  0  0  0  0  0  0  0
    8.0719   -1.8926    0.0000 H   0  0  0  0  0  0  0  0  0  0  0  0
    6.0903    3.5565    0.0000 H   0  0  0  0  0  0  0  0  0  0  0  0
    7.7336    3.0194    0.0000 H   0  0  0  0  0  0  0  0  0  0  0  0
  1  6  1  0  0  0  0 
  1  7  1  0  0  0  0 
  1  8  1  0  0  0  0 
  2  7  2  0  0  0  0 
  2 11  1  0  0  0  0 
  3  4  1  0  0  0  0 
  3  9  1  0  0  0  0 
  3 17  1  0  0  0  0 
  4 19  2  0  0  0  0 
  5 13  1  0  0  0  0 
  5 33  1  0  0  0  0 
  5 34  1  0  0  0  0 
  6  9  1  0  0  0  0 
  6 20  1  0  0  0  0 
  6 21  1  0  0  0  0 
  7 10  1  0  0  0  0 
  8 11  1  0  0  0  0 
  8 12  2  0  0  0  0 
  9 22  1  0  0  0  0 
  9 23  1  0  0  0  0 
 10 13  1  0  0  0  0 
 10 24  1  0  0  0  0 
 10 25  1  0  0  0  0 
 11 14  2  0  0  0  0 
 12 15  1  0  0  0  0 
 12 26  1  0  0  0  0 
 13 27  1  0  0  0  0 
 13 28  1  0  0  0  0 
 14 16  1  0  0  0  0 
 14 29  1  0  0  0  0 
 15 16  2  0  0  0  0 
 15 30  1  0  0  0  0 
 16 31  1  0  0  0  0 
 17 18  2  0  0  0  0 
 17 32  1  0  0  0  0 
 18 19  1  0  0  0  0 
 18 35  1  0  0  0  0 
 19 36  1  0  0  0  0 
M  END
> <cdk:Title>
63637020

> <cdk:Remark>
null

> <PUBCHEM_COMPOUND_CID>
63637020

> <PUBCHEM_COMPOUND_CANONICALIZED>
1

> <PUBCHEM_CACTVS_COMPLEXITY>
285

> <PUBCHEM_CACTVS_HBOND_ACCEPTOR>
3

> <PUBCHEM_CACTVS_HBOND_DONOR>
1

> <PUBCHEM_CACTVS_ROTATABLE_BOND>
5

> <PUBCHEM_CACTVS_SUBSKEYS>
AAADceBzgAAAAAAAAAAAAAAAAAAAAWLAAAAwAAAAAAAAAFgB/AAAHAAYAAAACAjBFwQ90LdMEACiATZnZACShC0xkqAZ2KA4dJiIaKLA2dGUpAhomALIyCcQAAAAAAAAAAAAACAAAAAAAAAAQAAAAAAAAA==

> <PUBCHEM_IUPAC_OPENEYE_NAME>
2-[1-(2-pyrazol-1-ylethyl)benzimidazol-2-yl]ethanamine

> <PUBCHEM_IUPAC_CAS_NAME>
2-[1-[2-(1-pyrazolyl)ethyl]-2-benzimidazolyl]ethanamine

> <PUBCHEM_IUPAC_NAME>
2-[1-(2-pyrazol-1-ylethyl)benzimidazol-2-yl]ethanamine

> <PUBCHEM_IUPAC_SYSTEMATIC_NAME>
2-[1-(2-pyrazol-1-ylethyl)benzimidazol-2-yl]ethanamine

> <PUBCHEM_IUPAC_TRADITIONAL_NAME>
2-[1-(2-pyrazol-1-ylethyl)benzimidazol-2-yl]ethylamine

> <PUBCHEM_IUPAC_INCHI>
InChI=1S/C14H17N5/c15-7-6-14-17-12-4-1-2-5-13(12)19(14)11-10-18-9-3-8-16-18/h1-5,8-9H,6-7,10-11,15H2

> <PUBCHEM_IUPAC_INCHIKEY>
AROSYIJOHPZUJJ-UHFFFAOYSA-N

> <PUBCHEM_XLOGP3_AA>
0.7

> <PUBCHEM_EXACT_MASS>
255.148396

> <PUBCHEM_MOLECULAR_FORMULA>
C14H17N5

> <PUBCHEM_MOLECULAR_WEIGHT>
255.31828

> <PUBCHEM_OPENEYE_CAN_SMILES>
C1=CC=C2C(=C1)N=C(N2CCN3C=CC=N3)CCN

> <PUBCHEM_OPENEYE_ISO_SMILES>
C1=CC=C2C(=C1)N=C(N2CCN3C=CC=N3)CCN

> <PUBCHEM_CACTVS_TPSA>
61.7

> <PUBCHEM_MONOISOTOPIC_WEIGHT>
255.148396

> <PUBCHEM_TOTAL_CHARGE>
0

> <PUBCHEM_HEAVY_ATOM_COUNT>
19

> <PUBCHEM_ATOM_DEF_STEREO_COUNT>
0

> <PUBCHEM_ATOM_UDEF_STEREO_COUNT>
0

> <PUBCHEM_BOND_DEF_STEREO_COUNT>
0

> <PUBCHEM_BOND_UDEF_STEREO_COUNT>
0

> <PUBCHEM_ISOTOPIC_ATOM_COUNT>
0

> <PUBCHEM_COMPONENT_COUNT>
1

> <PUBCHEM_CACTVS_TAUTO_COUNT>
2

> <PUBCHEM_COORDINATE_TYPE>
1

> <PUBCHEM_BONDANNOTATIONS>
1  7  8

$$$$
