69937028
  CDK     1205141211

 51 54  0  0  0  0  0  0  0  0999 V2000
    2.9755    0.9785    0.0000 O   0  0  0  0  0  0  0  0  0  0  0  0
    5.6591   -0.5785    0.0000 C   0  0  2  0  0  0  0  0  0  0  0  0
    4.7931   -0.0785    0.0000 C   0  0  1  0  0  0  0  0  0  0  0  0
    6.5251   -0.0785    0.0000 C   0  0  1  0  0  0  0  0  0  0  0  0
    6.5251    0.9215    0.0000 C   0  0  2  0  0  0  0  0  0  0  0  0
    3.8831   -0.5854    0.0000 C   0  0  2  0  0  0  0  0  0  0  0  0
    4.7931    0.9215    0.0000 C   0  0  0  0  0  0  0  0  0  0  0  0
    5.6591    1.4215    0.0000 C   0  0  0  0  0  0  0  0  0  0  0  0
    5.6752   -1.6200    0.0000 C   0  0  0  0  0  0  0  0  0  0  0  0
    7.4714   -0.3833    0.0000 C   0  0  0  0  0  0  0  0  0  0  0  0
    3.8751   -1.6270    0.0000 C   0  0  0  0  0  0  0  0  0  0  0  0
    7.4714    1.2262    0.0000 C   0  0  0  0  0  0  0  0  0  0  0  0
    2.9562   -0.0213    0.0000 C   0  0  3  0  0  0  0  0  0  0  0  0
    4.7771   -2.1478    0.0000 C   0  0  0  0  0  0  0  0  0  0  0  0
    8.0550    0.4215    0.0000 C   0  0  0  0  0  0  0  0  0  0  0  0
    6.5251    1.9215    0.0000 C   0  0  0  0  0  0  0  0  0  0  0  0
    3.8908    0.4146    0.0000 C   0  0  0  0  0  0  0  0  0  0  0  0
    2.0084   -0.5493    0.0000 C   0  0  0  0  0  0  0  0  0  0  0  0
    2.9396   -2.1767    0.0000 C   0  0  0  0  0  0  0  0  0  0  0  0
    2.0000   -1.6342    0.0000 C   0  0  0  0  0  0  0  0  0  0  0  0
    7.7820    2.1767    0.0000 C   0  0  0  0  0  0  0  0  0  0  0  0
    6.3985   -0.9979    0.0000 H   0  0  0  0  0  0  0  0  0  0  0  0
    5.5292    0.3465    0.0000 H   0  0  0  0  0  0  0  0  0  0  0  0
    6.6151   -0.9238    0.0000 H   0  0  0  0  0  0  0  0  0  0  0  0
    4.5810    1.5041    0.0000 H   0  0  0  0  0  0  0  0  0  0  0  0
    4.1825    0.8138    0.0000 H   0  0  0  0  0  0  0  0  0  0  0  0
    6.0576    1.8964    0.0000 H   0  0  0  0  0  0  0  0  0  0  0  0
    5.2606    1.8964    0.0000 H   0  0  0  0  0  0  0  0  0  0  0  0
    5.8932   -2.2004    0.0000 H   0  0  0  0  0  0  0  0  0  0  0  0
    6.2843   -1.5046    0.0000 H   0  0  0  0  0  0  0  0  0  0  0  0
    7.2203   -0.9502    0.0000 H   0  0  0  0  0  0  0  0  0  0  0  0
    8.0087   -0.6925    0.0000 H   0  0  0  0  0  0  0  0  0  0  0  0
    3.4996    0.2772    0.0000 H   0  0  0  0  0  0  0  0  0  0  0  0
    4.3798   -2.6238    0.0000 H   0  0  0  0  0  0  0  0  0  0  0  0
    5.1781   -2.6207    0.0000 H   0  0  0  0  0  0  0  0  0  0  0  0
    8.5158    0.0067    0.0000 H   0  0  0  0  0  0  0  0  0  0  0  0
    8.5158    0.8362    0.0000 H   0  0  0  0  0  0  0  0  0  0  0  0
    7.1451    1.9215    0.0000 H   0  0  0  0  0  0  0  0  0  0  0  0
    6.5251    2.5415    0.0000 H   0  0  0  0  0  0  0  0  0  0  0  0
    5.9051    1.9215    0.0000 H   0  0  0  0  0  0  0  0  0  0  0  0
    4.5108    0.4098    0.0000 H   0  0  0  0  0  0  0  0  0  0  0  0
    3.8956    1.0346    0.0000 H   0  0  0  0  0  0  0  0  0  0  0  0
    3.2708    0.4194    0.0000 H   0  0  0  0  0  0  0  0  0  0  0  0
    1.8038    0.0360    0.0000 H   0  0  0  0  0  0  0  0  0  0  0  0
    1.3967   -0.6506    0.0000 H   0  0  0  0  0  0  0  0  0  0  0  0
    2.9420   -2.7967    0.0000 H   0  0  0  0  0  0  0  0  0  0  0  0
    1.3900   -1.5234    0.0000 H   0  0  0  0  0  0  0  0  0  0  0  0
    1.7864   -2.2163    0.0000 H   0  0  0  0  0  0  0  0  0  0  0  0
    8.3887    2.3046    0.0000 H   0  0  0  0  0  0  0  0  0  0  0  0
    7.3680    2.6382    0.0000 H   0  0  0  0  0  0  0  0  0  0  0  0
    2.4447    1.2988    0.0000 H   0  0  0  0  0  0  0  0  0  0  0  0
  1 13  1  0  0  0  0 
  1 51  1  0  0  0  0 
  2  3  1  0  0  0  0 
  2  4  1  0  0  0  0 
  2  9  1  0  0  0  0 
  2 22  1  1  0  0  0 
  3  6  1  0  0  0  0 
  3  7  1  0  0  0  0 
  3 23  1  6  0  0  0 
  4  5  1  0  0  0  0 
  4 10  1  0  0  0  0 
  4 24  1  6  0  0  0 
  5  8  1  0  0  0  0 
  5 12  1  0  0  0  0 
  5 16  1  1  0  0  0 
  6 11  1  0  0  0  0 
  6 13  1  0  0  0  0 
  6 17  1  1  0  0  0 
  7  8  1  0  0  0  0 
  7 25  1  0  0  0  0 
  7 26  1  0  0  0  0 
  8 27  1  0  0  0  0 
  8 28  1  0  0  0  0 
  9 14  1  0  0  0  0 
  9 29  1  0  0  0  0 
  9 30  1  0  0  0  0 
 10 15  1  0  0  0  0 
 10 31  1  0  0  0  0 
 10 32  1  0  0  0  0 
 11 14  1  0  0  0  0 
 11 19  2  0  0  0  0 
 12 15  1  0  0  0  0 
 12 21  2  0  0  0  0 
 13 18  1  0  0  0  0 
 13 33  1  0  0  0  0 
 14 34  1  0  0  0  0 
 14 35  1  0  0  0  0 
 15 36  1  0  0  0  0 
 15 37  1  0  0  0  0 
 16 38  1  0  0  0  0 
 16 39  1  0  0  0  0 
 16 40  1  0  0  0  0 
 17 41  1  0  0  0  0 
 17 42  1  0  0  0  0 
 17 43  1  0  0  0  0 
 18 20  1  0  0  0  0 
 18 44  1  0  0  0  0 
 18 45  1  0  0  0  0 
 19 20  1  0  0  0  0 
 19 46  1  0  0  0  0 
 20 47  1  0  0  0  0 
 20 48  1  0  0  0  0 
 21 49  1  0  0  0  0 
 21 50  1  0  0  0  0 
M  END
> <cdk:Title>
69937028

> <cdk:Remark>
null

> <PUBCHEM_COMPOUND_CID>
69937028

> <PUBCHEM_COMPOUND_CANONICALIZED>
1

> <PUBCHEM_CACTVS_COMPLEXITY>
504

> <PUBCHEM_CACTVS_HBOND_ACCEPTOR>
1

> <PUBCHEM_CACTVS_HBOND_DONOR>
1

> <PUBCHEM_CACTVS_ROTATABLE_BOND>
0

> <PUBCHEM_CACTVS_SUBSKEYS>
AAADceB4IAAAAAAAAAAAAAAAAAAAAYAAAAAwYIAAAAAAAGDAAAAAGgAACAAADxSggAICAAAAAgCAAiBCAAAAAAAgAAAACAAAAAgAEAIAAQAAQAAEwAAIAAOAwPAPgAAAAAAAAACAAAQAACAAAAAACAAAAA==

> <PUBCHEM_IUPAC_OPENEYE_NAME>
(8S,9S,10R,13S,14S)-10,13-dimethyl-17-methylene-1,2,3,6,7,8,9,11,12,14,15,16-dodecahydrocyclopenta[a]phenanthren-1-ol

> <PUBCHEM_IUPAC_CAS_NAME>
(8S,9S,10R,13S,14S)-10,13-dimethyl-17-methylene-1,2,3,6,7,8,9,11,12,14,15,16-dodecahydrocyclopenta[a]phenanthren-1-ol

> <PUBCHEM_IUPAC_NAME>
(8S,9S,10R,13S,14S)-10,13-dimethyl-17-methylidene-1,2,3,6,7,8,9,11,12,14,15,16-dodecahydrocyclopenta[a]phenanthren-1-ol

> <PUBCHEM_IUPAC_SYSTEMATIC_NAME>
(8S,9S,10R,13S,14S)-10,13-dimethyl-17-methylidene-1,2,3,6,7,8,9,11,12,14,15,16-dodecahydrocyclopenta[a]phenanthren-1-ol

> <PUBCHEM_IUPAC_TRADITIONAL_NAME>
(8S,9S,10R,13S,14S)-10,13-dimethyl-17-methylene-1,2,3,6,7,8,9,11,12,14,15,16-dodecahydrocyclopenta[a]phenanthren-1-ol

> <PUBCHEM_IUPAC_INCHI>
InChI=1S/C20H30O/c1-13-7-10-16-15-9-8-14-5-4-6-18(21)20(14,3)17(15)11-12-19(13,16)2/h5,15-18,21H,1,4,6-12H2,2-3H3/t15-,16-,17-,18?,19+,20-/m0/s1

> <PUBCHEM_IUPAC_INCHIKEY>
OOSRVLVWACWJGV-NYOUIZJCSA-N

> <PUBCHEM_XLOGP3_AA>
4.9

> <PUBCHEM_EXACT_MASS>
286.229666

> <PUBCHEM_MOLECULAR_FORMULA>
C20H30O

> <PUBCHEM_MOLECULAR_WEIGHT>
286.4516

> <PUBCHEM_OPENEYE_CAN_SMILES>
CC12CCC3C(C1CCC2=C)CCC4=CCCC(C34C)O

> <PUBCHEM_OPENEYE_ISO_SMILES>
C[C@]12CC[C@H]3[C@H]([C@@H]1CCC2=C)CCC4=CCCC([C@]34C)O

> <PUBCHEM_CACTVS_TPSA>
20.2

> <PUBCHEM_MONOISOTOPIC_WEIGHT>
286.229666

> <PUBCHEM_TOTAL_CHARGE>
0

> <PUBCHEM_HEAVY_ATOM_COUNT>
21

> <PUBCHEM_ATOM_DEF_STEREO_COUNT>
5

> <PUBCHEM_ATOM_UDEF_STEREO_COUNT>
1

> <PUBCHEM_BOND_DEF_STEREO_COUNT>
0

> <PUBCHEM_BOND_UDEF_STEREO_COUNT>
0

> <PUBCHEM_ISOTOPIC_ATOM_COUNT>
0

> <PUBCHEM_COMPONENT_COUNT>
1

> <PUBCHEM_CACTVS_TAUTO_COUNT>
1

> <PUBCHEM_COORDINATE_TYPE>
1

> <PUBCHEM_BONDANNOTATIONS>
13  1  3

$$$$
