9355739
  CDK     1205141210

 32 34  0  0  0  0  0  0  0  0999 V2000
    8.4993    3.9602    0.0000 Br  0  0  0  0  0  0  0  0  0  0  0  0
    9.2136    0.5705    0.0000 F   0  0  0  0  0  0  0  0  0  0  0  0
    4.9889   -1.2049    0.0000 O   0  0  0  0  0  0  0  0  0  0  0  0
    5.6103    0.6961    0.0000 O   0  0  0  0  0  0  0  0  0  0  0  0
    3.7320   -2.4602    0.0000 N   0  0  0  0  0  0  0  0  0  0  0  0
    7.2566    0.1581    0.0000 N   0  0  0  0  0  0  0  0  0  0  0  0
    4.6783   -3.7649    0.0000 N   0  0  0  0  0  0  0  0  0  0  0  0
    5.2619   -2.9602    0.0000 N   0  0  0  0  0  0  0  0  0  0  0  0
    3.7320   -3.4602    0.0000 C   0  0  0  0  0  0  0  0  0  0  0  0
    4.6783   -2.1554    0.0000 C   0  0  0  0  0  0  0  0  0  0  0  0
    2.8660   -1.9602    0.0000 C   0  0  0  0  0  0  0  0  0  0  0  0
    5.9674   -0.9987    0.0000 C   0  0  0  0  0  0  0  0  0  0  0  0
    2.8660   -3.9602    0.0000 C   0  0  0  0  0  0  0  0  0  0  0  0
    7.5673    1.1086    0.0000 C   0  0  0  0  0  0  0  0  0  0  0  0
    6.2781   -0.0482    0.0000 C   0  0  0  0  0  0  0  0  0  0  0  0
    2.0000   -2.4602    0.0000 C   0  0  0  0  0  0  0  0  0  0  0  0
    2.0000   -3.4602    0.0000 C   0  0  0  0  0  0  0  0  0  0  0  0
    8.5458    1.3148    0.0000 C   0  0  0  0  0  0  0  0  0  0  0  0
    6.8994    1.8529    0.0000 C   0  0  0  0  0  0  0  0  0  0  0  0
    8.8564    2.2653    0.0000 C   0  0  0  0  0  0  0  0  0  0  0  0
    7.2101    2.8034    0.0000 C   0  0  0  0  0  0  0  0  0  0  0  0
    8.1886    3.0096    0.0000 C   0  0  0  0  0  0  0  0  0  0  0  0
    2.8660   -1.3402    0.0000 H   0  0  0  0  0  0  0  0  0  0  0  0
    5.9880   -1.6183    0.0000 H   0  0  0  0  0  0  0  0  0  0  0  0
    6.5812   -1.0860    0.0000 H   0  0  0  0  0  0  0  0  0  0  0  0
    2.8660   -4.5802    0.0000 H   0  0  0  0  0  0  0  0  0  0  0  0
    7.6707   -0.3034    0.0000 H   0  0  0  0  0  0  0  0  0  0  0  0
    1.4631   -2.1502    0.0000 H   0  0  0  0  0  0  0  0  0  0  0  0
    1.4631   -3.7702    0.0000 H   0  0  0  0  0  0  0  0  0  0  0  0
    6.2928    1.7250    0.0000 H   0  0  0  0  0  0  0  0  0  0  0  0
    9.4631    2.3932    0.0000 H   0  0  0  0  0  0  0  0  0  0  0  0
    6.7960    3.2649    0.0000 H   0  0  0  0  0  0  0  0  0  0  0  0
  1 22  1  0  0  0  0 
  2 18  1  0  0  0  0 
  3 10  1  0  0  0  0 
  3 12  1  0  0  0  0 
  4 15  2  0  0  0  0 
  5  9  1  0  0  0  0 
  5 10  1  0  0  0  0 
  5 11  1  0  0  0  0 
  6 14  1  0  0  0  0 
  6 15  1  0  0  0  0 
  6 27  1  0  0  0  0 
  7  8  1  0  0  0  0 
  7  9  2  0  0  0  0 
  8 10  2  0  0  0  0 
  9 13  1  0  0  0  0 
 11 16  2  0  0  0  0 
 11 23  1  0  0  0  0 
 12 15  1  0  0  0  0 
 12 24  1  0  0  0  0 
 12 25  1  0  0  0  0 
 13 17  2  0  0  0  0 
 13 26  1  0  0  0  0 
 14 18  2  0  0  0  0 
 14 19  1  0  0  0  0 
 16 17  1  0  0  0  0 
 16 28  1  0  0  0  0 
 17 29  1  0  0  0  0 
 18 20  1  0  0  0  0 
 19 21  2  0  0  0  0 
 19 30  1  0  0  0  0 
 20 22  2  0  0  0  0 
 20 31  1  0  0  0  0 
 21 22  1  0  0  0  0 
 21 32  1  0  0  0  0 
M  END
> <cdk:Title>
9355739

> <cdk:Remark>
null

> <PUBCHEM_COMPOUND_CID>
9355739

> <PUBCHEM_COMPOUND_CANONICALIZED>
1

> <PUBCHEM_CACTVS_COMPLEXITY>
403

> <PUBCHEM_CACTVS_HBOND_ACCEPTOR>
5

> <PUBCHEM_CACTVS_HBOND_DONOR>
1

> <PUBCHEM_CACTVS_ROTATABLE_BOND>
4

> <PUBCHEM_CACTVS_SUBSKEYS>
AAADccBzsQAAEAAAAAAAAAAAAAAAAWAAAAA8QAAAAAAAAFgB8AAAHwBYAAABqAjhkw498J/MHACqADd3dAKShCsxAqQd2CB4ZLiKKOLAmZWNoAhgnALYyjcQAAAAAAAgAAAAAAAAAEAAAAAAAAAAAAAAAA==

> <PUBCHEM_IUPAC_OPENEYE_NAME>
N-(4-bromo-2-fluoro-phenyl)-2-([1,2,4]triazolo[4,3-a]pyridin-3-yloxy)acetamide

> <PUBCHEM_IUPAC_CAS_NAME>
N-(4-bromo-2-fluorophenyl)-2-([1,2,4]triazolo[4,3-a]pyridin-3-yloxy)acetamide

> <PUBCHEM_IUPAC_NAME>
N-(4-bromo-2-fluorophenyl)-2-([1,2,4]triazolo[4,3-a]pyridin-3-yloxy)acetamide

> <PUBCHEM_IUPAC_SYSTEMATIC_NAME>
N-(4-bromanyl-2-fluoranyl-phenyl)-2-([1,2,4]triazolo[4,3-a]pyridin-3-yloxy)ethanamide

> <PUBCHEM_IUPAC_TRADITIONAL_NAME>
N-(4-bromo-2-fluoro-phenyl)-2-([1,2,4]triazolo[4,3-a]pyridin-3-yloxy)acetamide

> <PUBCHEM_IUPAC_INCHI>
InChI=1S/C14H10BrFN4O2/c15-9-4-5-11(10(16)7-9)17-13(21)8-22-14-19-18-12-3-1-2-6-20(12)14/h1-7H,8H2,(H,17,21)

> <PUBCHEM_IUPAC_INCHIKEY>
MVSXMRLLUVCEPK-UHFFFAOYSA-N

> <PUBCHEM_XLOGP3_AA>
3.2

> <PUBCHEM_EXACT_MASS>
363.997116

> <PUBCHEM_MOLECULAR_FORMULA>
C14H10BrFN4O2

> <PUBCHEM_MOLECULAR_WEIGHT>
365.157203

> <PUBCHEM_OPENEYE_CAN_SMILES>
C1=CC2=NN=C(N2C=C1)OCC(=O)NC3=C(C=C(C=C3)Br)F

> <PUBCHEM_OPENEYE_ISO_SMILES>
C1=CC2=NN=C(N2C=C1)OCC(=O)NC3=C(C=C(C=C3)Br)F

> <PUBCHEM_CACTVS_TPSA>
68.5

> <PUBCHEM_MONOISOTOPIC_WEIGHT>
363.997116

> <PUBCHEM_TOTAL_CHARGE>
0

> <PUBCHEM_HEAVY_ATOM_COUNT>
22

> <PUBCHEM_ATOM_DEF_STEREO_COUNT>
0

> <PUBCHEM_ATOM_UDEF_STEREO_COUNT>
0

> <PUBCHEM_BOND_DEF_STEREO_COUNT>
0

> <PUBCHEM_BOND_UDEF_STEREO_COUNT>
0

> <PUBCHEM_ISOTOPIC_ATOM_COUNT>
0

> <PUBCHEM_COMPONENT_COUNT>
1

> <PUBCHEM_CACTVS_TAUTO_COUNT>
3

> <PUBCHEM_COORDINATE_TYPE>
1

> <PUBCHEM_BONDANNOTATIONS>
11  16  8

$$$$
9355739
  CDK     1205141211

 32 34  0  0  0  0  0  0  0  0999 V2000
    8.4993    3.9602    0.0000 Br  0  0  0  0  0  0  0  0  0  0  0  0
    9.2136    0.5705    0.0000 F   0  0  0  0  0  0  0  0  0  0  0  0
    4.9889   -1.2049    0.0000 O   0  0  0  0  0  0  0  0  0  0  0  0
    5.6103    0.6961    0.0000 O   0  0  0  0  0  0  0  0  0  0  0  0
    3.7320   -2.4602    0.0000 N   0  0  0  0  0  0  0  0  0  0  0  0
    7.2566    0.1581    0.0000 N   0  0  0  0  0  0  0  0  0  0  0  0
    4.6783   -3.7649    0.0000 N   0  0  0  0  0  0  0  0  0  0  0  0
    5.2619   -2.9602    0.0000 N   0  0  0  0  0  0  0  0  0  0  0  0
    3.7320   -3.4602    0.0000 C   0  0  0  0  0  0  0  0  0  0  0  0
    4.6783   -2.1554    0.0000 C   0  0  0  0  0  0  0  0  0  0  0  0
    2.8660   -1.9602    0.0000 C   0  0  0  0  0  0  0  0  0  0  0  0
    5.9674   -0.9987    0.0000 C   0  0  0  0  0  0  0  0  0  0  0  0
    2.8660   -3.9602    0.0000 C   0  0  0  0  0  0  0  0  0  0  0  0
    7.5673    1.1086    0.0000 C   0  0  0  0  0  0  0  0  0  0  0  0
    6.2781   -0.0482    0.0000 C   0  0  0  0  0  0  0  0  0  0  0  0
    2.0000   -2.4602    0.0000 C   0  0  0  0  0  0  0  0  0  0  0  0
    2.0000   -3.4602    0.0000 C   0  0  0  0  0  0  0  0  0  0  0  0
    8.5458    1.3148    0.0000 C   0  0  0  0  0  0  0  0  0  0  0  0
    6.8994    1.8529    0.0000 C   0  0  0  0  0  0  0  0  0  0  0  0
    8.8564    2.2653    0.0000 C   0  0  0  0  0  0  0  0  0  0  0  0
    7.2101    2.8034    0.0000 C   0  0  0  0  0  0  0  0  0  0  0  0
    8.1886    3.0096    0.0000 C   0  0  0  0  0  0  0  0  0  0  0  0
    2.8660   -1.3402    0.0000 H   0  0  0  0  0  0  0  0  0  0  0  0
    5.9880   -1.6183    0.0000 H   0  0  0  0  0  0  0  0  0  0  0  0
    6.5812   -1.0860    0.0000 H   0  0  0  0  0  0  0  0  0  0  0  0
    2.8660   -4.5802    0.0000 H   0  0  0  0  0  0  0  0  0  0  0  0
    7.6707   -0.3034    0.0000 H   0  0  0  0  0  0  0  0  0  0  0  0
    1.4631   -2.1502    0.0000 H   0  0  0  0  0  0  0  0  0  0  0  0
    1.4631   -3.7702    0.0000 H   0  0  0  0  0  0  0  0  0  0  0  0
    6.2928    1.7250    0.0000 H   0  0  0  0  0  0  0  0  0  0  0  0
    9.4631    2.3932    0.0000 H   0  0  0  0  0  0  0  0  0  0  0  0
    6.7960    3.2649    0.0000 H   0  0  0  0  0  0  0  0  0  0  0  0
  1 22  1  0  0  0  0 
  2 18  1  0  0  0  0 
  3 10  1  0  0  0  0 
  3 12  1  0  0  0  0 
  4 15  2  0  0  0  0 
  5  9  1  0  0  0  0 
  5 10  1  0  0  0  0 
  5 11  1  0  0  0  0 
  6 14  1  0  0  0  0 
  6 15  1  0  0  0  0 
  6 27  1  0  0  0  0 
  7  8  1  0  0  0  0 
  7  9  2  0  0  0  0 
  8 10  2  0  0  0  0 
  9 13  1  0  0  0  0 
 11 16  2  0  0  0  0 
 11 23  1  0  0  0  0 
 12 15  1  0  0  0  0 
 12 24  1  0  0  0  0 
 12 25  1  0  0  0  0 
 13 17  2  0  0  0  0 
 13 26  1  0  0  0  0 
 14 18  2  0  0  0  0 
 14 19  1  0  0  0  0 
 16 17  1  0  0  0  0 
 16 28  1  0  0  0  0 
 17 29  1  0  0  0  0 
 18 20  1  0  0  0  0 
 19 21  2  0  0  0  0 
 19 30  1  0  0  0  0 
 20 22  2  0  0  0  0 
 20 31  1  0  0  0  0 
 21 22  1  0  0  0  0 
 21 32  1  0  0  0  0 
M  END
> <cdk:Title>
9355739

> <cdk:Remark>
null

> <PUBCHEM_COMPOUND_CID>
9355739

> <PUBCHEM_COMPOUND_CANONICALIZED>
1

> <PUBCHEM_CACTVS_COMPLEXITY>
403

> <PUBCHEM_CACTVS_HBOND_ACCEPTOR>
5

> <PUBCHEM_CACTVS_HBOND_DONOR>
1

> <PUBCHEM_CACTVS_ROTATABLE_BOND>
4

> <PUBCHEM_CACTVS_SUBSKEYS>
AAADccBzsQAAEAAAAAAAAAAAAAAAAWAAAAA8QAAAAAAAAFgB8AAAHwBYAAABqAjhkw498J/MHACqADd3dAKShCsxAqQd2CB4ZLiKKOLAmZWNoAhgnALYyjcQAAAAAAAgAAAAAAAAAEAAAAAAAAAAAAAAAA==

> <PUBCHEM_IUPAC_OPENEYE_NAME>
N-(4-bromo-2-fluoro-phenyl)-2-([1,2,4]triazolo[4,3-a]pyridin-3-yloxy)acetamide

> <PUBCHEM_IUPAC_CAS_NAME>
N-(4-bromo-2-fluorophenyl)-2-([1,2,4]triazolo[4,3-a]pyridin-3-yloxy)acetamide

> <PUBCHEM_IUPAC_NAME>
N-(4-bromo-2-fluorophenyl)-2-([1,2,4]triazolo[4,3-a]pyridin-3-yloxy)acetamide

> <PUBCHEM_IUPAC_SYSTEMATIC_NAME>
N-(4-bromanyl-2-fluoranyl-phenyl)-2-([1,2,4]triazolo[4,3-a]pyridin-3-yloxy)ethanamide

> <PUBCHEM_IUPAC_TRADITIONAL_NAME>
N-(4-bromo-2-fluoro-phenyl)-2-([1,2,4]triazolo[4,3-a]pyridin-3-yloxy)acetamide

> <PUBCHEM_IUPAC_INCHI>
InChI=1S/C14H10BrFN4O2/c15-9-4-5-11(10(16)7-9)17-13(21)8-22-14-19-18-12-3-1-2-6-20(12)14/h1-7H,8H2,(H,17,21)

> <PUBCHEM_IUPAC_INCHIKEY>
MVSXMRLLUVCEPK-UHFFFAOYSA-N

> <PUBCHEM_XLOGP3_AA>
3.2

> <PUBCHEM_EXACT_MASS>
363.997116

> <PUBCHEM_MOLECULAR_FORMULA>
C14H10BrFN4O2

> <PUBCHEM_MOLECULAR_WEIGHT>
365.157203

> <PUBCHEM_OPENEYE_CAN_SMILES>
C1=CC2=NN=C(N2C=C1)OCC(=O)NC3=C(C=C(C=C3)Br)F

> <PUBCHEM_OPENEYE_ISO_SMILES>
C1=CC2=NN=C(N2C=C1)OCC(=O)NC3=C(C=C(C=C3)Br)F

> <PUBCHEM_CACTVS_TPSA>
68.5

> <PUBCHEM_MONOISOTOPIC_WEIGHT>
363.997116

> <PUBCHEM_TOTAL_CHARGE>
0

> <PUBCHEM_HEAVY_ATOM_COUNT>
22

> <PUBCHEM_ATOM_DEF_STEREO_COUNT>
0

> <PUBCHEM_ATOM_UDEF_STEREO_COUNT>
0

> <PUBCHEM_BOND_DEF_STEREO_COUNT>
0

> <PUBCHEM_BOND_UDEF_STEREO_COUNT>
0

> <PUBCHEM_ISOTOPIC_ATOM_COUNT>
0

> <PUBCHEM_COMPONENT_COUNT>
1

> <PUBCHEM_CACTVS_TAUTO_COUNT>
3

> <PUBCHEM_COORDINATE_TYPE>
1

> <PUBCHEM_BONDANNOTATIONS>
11  16  8

$$$$
