
  CDK     0224152114

 15 17  0  0  0  0  0  0  0  0999 V2000
    8.4742   -1.7984    0.0000 S   0  0  0  0  0  0  0  0  0  0  0  0
    3.8660    1.4324    0.0000 O   0  0  0  0  0  0  0  0  0  0  0  0
    3.8660   -0.5676    0.0000 N   0  0  0  0  0  0  0  0  0  0  0  0
    8.3113   -0.1886    0.0000 N   0  0  0  0  0  0  0  0  0  0  0  0
    3.0000    0.9324    0.0000 C   0  0  0  0  0  0  0  0  0  0  0  0
    3.0000   -0.0676    0.0000 C   0  0  0  0  0  0  0  0  0  0  0  0
    4.7320   -0.0676    0.0000 C   0  0  0  0  0  0  0  0  0  0  0  0
    4.7320    0.9324    0.0000 C   0  0  0  0  0  0  0  0  0  0  0  0
    5.6260   -0.6023    0.0000 C   0  0  0  0  0  0  0  0  0  0  0  0
    5.6260    1.4670    0.0000 C   0  0  0  0  0  0  0  0  0  0  0  0
    6.5321   -0.0885    0.0000 C   0  0  0  0  0  0  0  0  0  0  0  0
    6.5321    0.9532    0.0000 C   0  0  0  0  0  0  0  0  0  0  0  0
    7.3962   -0.5918    0.0000 C   0  0  0  0  0  0  0  0  0  0  0  0
    7.4968   -1.5867    0.0000 C   0  0  0  0  0  0  0  0  0  0  0  0
    8.9775   -0.9343    0.0000 C   0  0  0  0  0  0  0  0  0  0  0  0
  1 14  1  0  0  0  0 
  1 15  1  0  0  0  0 
  2  5  1  0  0  0  0 
  2  8  1  0  0  0  0 
  3  6  1  0  0  0  0 
  3  7  1  0  0  0  0 
  4 13  1  0  0  0  0 
  4 15  1  0  0  0  0 
  5  6  1  0  0  0  0 
  7  8  1  0  0  0  0 
  7  9  1  0  0  0  0 
  8 10  1  0  0  0  0 
  9 11  1  0  0  0  0 
 10 12  1  0  0  0  0 
 11 12  1  0  0  0  0 
 11 13  1  0  0  0  0 
 13 14  1  0  0  0  0 
M  END
> <PUBCHEM_COMPOUND_CID>
28815830

$$$$
