
  CDK     0224152114

 16 17  0  0  0  0  0  0  0  0999 V2000
    6.3301    1.6682    0.0000 O   0  0  0  0  0  0  0  0  0  0  0  0
    8.7788    3.5046    0.0000 O   0  0  0  0  0  0  0  0  0  0  0  0
    4.5981   -0.3318    0.0000 N   0  0  0  0  0  0  0  0  0  0  0  0
    8.2788    4.3706    0.0000 N   0  0  0  0  0  0  0  0  0  0  0  0
    5.4641   -2.8318    0.0000 C   0  0  0  0  0  0  0  0  0  0  0  0
    5.4641   -1.8318    0.0000 C   0  0  0  0  0  0  0  0  0  0  0  0
    4.5981   -1.3318    0.0000 C   0  0  0  0  0  0  0  0  0  0  0  0
    4.5981   -3.3318    0.0000 C   0  0  0  0  0  0  0  0  0  0  0  0
    3.7320   -1.8318    0.0000 C   0  0  0  0  0  0  0  0  0  0  0  0
    3.7320   -2.8318    0.0000 C   0  0  0  0  0  0  0  0  0  0  0  0
    5.4641    0.1682    0.0000 C   0  0  0  0  0  0  0  0  0  0  0  0
    5.4641    1.1682    0.0000 C   0  0  0  0  0  0  0  0  0  0  0  0
    7.1962    3.1682    0.0000 C   0  0  0  0  0  0  0  0  0  0  0  0
    8.1097    2.7614    0.0000 C   0  0  0  0  0  0  0  0  0  0  0  0
    7.3007    4.1627    0.0000 C   0  0  0  0  0  0  0  0  0  0  0  0
    6.3301    2.6682    0.0000 C   0  0  0  0  0  0  0  0  0  0  0  0
  1 12  1  0  0  0  0 
  1 16  1  0  0  0  0 
  2  4  1  0  0  0  0 
  2 14  1  0  0  0  0 
  3  7  1  0  0  0  0 
  3 11  1  0  0  0  0 
  4 15  1  0  0  0  0 
  5  6  1  0  0  0  0 
  5  8  1  0  0  0  0 
  6  7  1  0  0  0  0 
  7  9  1  0  0  0  0 
  8 10  1  0  0  0  0 
  9 10  1  0  0  0  0 
 11 12  1  0  0  0  0 
 13 14  1  0  0  0  0 
 13 15  1  0  0  0  0 
 13 16  1  0  0  0  0 
M  END
> <PUBCHEM_COMPOUND_CID>
3989000

$$$$
