16846817
  CDK     1223141415

 54 57  0  0  0  0  0  0  0  0999 V2000
    9.7942    0.6966    0.0000 O   0  0  0  0  0  0  0  0  0  0  0  0
    7.1962   -1.8034    0.0000 O   0  0  0  0  0  0  0  0  0  0  0  0
    2.8660   -0.3034    0.0000 O   0  0  0  0  0  0  0  0  0  0  0  0
   11.6065   -0.4987    0.0000 N   0  0  0  0  0  0  0  0  0  0  0  0
    8.9282   -0.8034    0.0000 N   0  0  0  0  0  0  0  0  0  0  0  0
   12.1901   -1.3034    0.0000 N   0  0  0  0  0  0  0  0  0  0  0  0
    8.9282   -1.8034    0.0000 N   0  0  0  0  0  0  0  0  0  0  0  0
    6.3301   -0.3034    0.0000 N   0  0  0  0  0  0  0  0  0  0  0  0
   10.6603   -0.8034    0.0000 C   0  0  0  0  0  0  0  0  0  0  0  0
   10.6603   -1.8034    0.0000 C   0  0  0  0  0  0  0  0  0  0  0  0
   11.9171    0.4518    0.0000 C   0  0  0  0  0  0  0  0  0  0  0  0
    9.7942   -0.3034    0.0000 C   0  0  0  0  0  0  0  0  0  0  0  0
    9.7942   -2.3034    0.0000 C   0  0  0  0  0  0  0  0  0  0  0  0
   11.6065   -2.1081    0.0000 C   0  0  0  0  0  0  0  0  0  0  0  0
    8.0622   -0.3034    0.0000 C   0  0  0  0  0  0  0  0  0  0  0  0
   12.8956    0.6581    0.0000 C   0  0  0  0  0  0  0  0  0  0  0  0
   13.2063    1.6086    0.0000 C   0  0  0  0  0  0  0  0  0  0  0  0
   11.2493    1.1962    0.0000 C   0  0  0  0  0  0  0  0  0  0  0  0
   12.5385    2.3529    0.0000 C   0  0  0  0  0  0  0  0  0  0  0  0
   11.5600    2.1467    0.0000 C   0  0  0  0  0  0  0  0  0  0  0  0
    9.7942   -3.3034    0.0000 C   0  0  0  0  0  0  0  0  0  0  0  0
    7.1962   -0.8034    0.0000 C   0  0  0  0  0  0  0  0  0  0  0  0
   14.1848    1.8148    0.0000 C   0  0  0  0  0  0  0  0  0  0  0  0
   12.8491    3.3034    0.0000 C   0  0  0  0  0  0  0  0  0  0  0  0
    5.4641   -0.8034    0.0000 C   0  0  0  0  0  0  0  0  0  0  0  0
    4.5981   -0.3034    0.0000 C   0  0  0  0  0  0  0  0  0  0  0  0
    5.4641   -1.8034    0.0000 C   0  0  0  0  0  0  0  0  0  0  0  0
    3.7320   -0.8034    0.0000 C   0  0  0  0  0  0  0  0  0  0  0  0
    4.5981   -2.3034    0.0000 C   0  0  0  0  0  0  0  0  0  0  0  0
    3.7320   -1.8034    0.0000 C   0  0  0  0  0  0  0  0  0  0  0  0
    2.0000   -0.8034    0.0000 C   0  0  0  0  0  0  0  0  0  0  0  0
   11.7991   -2.6975    0.0000 H   0  0  0  0  0  0  0  0  0  0  0  0
    8.4607    0.1715    0.0000 H   0  0  0  0  0  0  0  0  0  0  0  0
    7.6636    0.1715    0.0000 H   0  0  0  0  0  0  0  0  0  0  0  0
   13.3097    0.1966    0.0000 H   0  0  0  0  0  0  0  0  0  0  0  0
   10.6426    1.0683    0.0000 H   0  0  0  0  0  0  0  0  0  0  0  0
   11.1459    2.6081    0.0000 H   0  0  0  0  0  0  0  0  0  0  0  0
    9.1742   -3.3034    0.0000 H   0  0  0  0  0  0  0  0  0  0  0  0
    9.7942   -3.9234    0.0000 H   0  0  0  0  0  0  0  0  0  0  0  0
   10.4142   -3.3034    0.0000 H   0  0  0  0  0  0  0  0  0  0  0  0
   14.3127    1.2081    0.0000 H   0  0  0  0  0  0  0  0  0  0  0  0
   14.7915    1.9427    0.0000 H   0  0  0  0  0  0  0  0  0  0  0  0
   14.0570    2.4215    0.0000 H   0  0  0  0  0  0  0  0  0  0  0  0
   13.4384    3.1108    0.0000 H   0  0  0  0  0  0  0  0  0  0  0  0
   13.0417    3.8927    0.0000 H   0  0  0  0  0  0  0  0  0  0  0  0
   12.2598    3.4960    0.0000 H   0  0  0  0  0  0  0  0  0  0  0  0
    6.3301    0.3166    0.0000 H   0  0  0  0  0  0  0  0  0  0  0  0
    4.5981    0.3166    0.0000 H   0  0  0  0  0  0  0  0  0  0  0  0
    6.0010   -2.1134    0.0000 H   0  0  0  0  0  0  0  0  0  0  0  0
    4.5981   -2.9234    0.0000 H   0  0  0  0  0  0  0  0  0  0  0  0
    3.1951   -2.1134    0.0000 H   0  0  0  0  0  0  0  0  0  0  0  0
    1.6900   -0.2665    0.0000 H   0  0  0  0  0  0  0  0  0  0  0  0
    1.4631   -1.1134    0.0000 H   0  0  0  0  0  0  0  0  0  0  0  0
    2.3100   -1.3403    0.0000 H   0  0  0  0  0  0  0  0  0  0  0  0
  1 12  2  0  0  0  0 
  2 22  2  0  0  0  0 
  3 28  1  0  0  0  0 
  3 31  1  0  0  0  0 
  4  6  1  0  0  0  0 
  4  9  1  0  0  0  0 
  4 11  1  0  0  0  0 
  5  7  1  0  0  0  0 
  5 12  1  0  0  0  0 
  5 15  1  0  0  0  0 
  6 14  2  0  0  0  0 
  7 13  2  0  0  0  0 
  8 22  1  0  0  0  0 
  8 25  1  0  0  0  0 
  8 47  1  0  0  0  0 
  9 10  2  0  0  0  0 
  9 12  1  0  0  0  0 
 10 13  1  0  0  0  0 
 10 14  1  0  0  0  0 
 11 16  2  0  0  0  0 
 11 18  1  0  0  0  0 
 13 21  1  0  0  0  0 
 14 32  1  0  0  0  0 
 15 22  1  0  0  0  0 
 15 33  1  0  0  0  0 
 15 34  1  0  0  0  0 
 16 17  1  0  0  0  0 
 16 35  1  0  0  0  0 
 17 19  2  0  0  0  0 
 17 23  1  0  0  0  0 
 18 20  2  0  0  0  0 
 18 36  1  0  0  0  0 
 19 20  1  0  0  0  0 
 19 24  1  0  0  0  0 
 20 37  1  0  0  0  0 
 21 38  1  0  0  0  0 
 21 39  1  0  0  0  0 
 21 40  1  0  0  0  0 
 23 41  1  0  0  0  0 
 23 42  1  0  0  0  0 
 23 43  1  0  0  0  0 
 24 44  1  0  0  0  0 
 24 45  1  0  0  0  0 
 24 46  1  0  0  0  0 
 25 26  2  0  0  0  0 
 25 27  1  0  0  0  0 
 26 28  1  0  0  0  0 
 26 48  1  0  0  0  0 
 27 29  2  0  0  0  0 
 27 49  1  0  0  0  0 
 28 30  2  0  0  0  0 
 29 30  1  0  0  0  0 
 29 50  1  0  0  0  0 
 30 51  1  0  0  0  0 
 31 52  1  0  0  0  0 
 31 53  1  0  0  0  0 
 31 54  1  0  0  0  0 
M  END
> <cdk:Title>
16846817

> <cdk:Remark>
null

> <PUBCHEM_COMPOUND_CID>
16846817

> <PUBCHEM_COMPOUND_CANONICALIZED>
1

> <PUBCHEM_CACTVS_COMPLEXITY>
713

> <PUBCHEM_CACTVS_HBOND_ACCEPTOR>
5

> <PUBCHEM_CACTVS_HBOND_DONOR>
1

> <PUBCHEM_CACTVS_ROTATABLE_BOND>
5

> <PUBCHEM_CACTVS_SUBSKEYS>
AAADceB7sAAAAAAAAAAAAAAAAAAAAWAAAAAwYIAAAAAAAEAB0AAAHgAYAAAADAzBngY+xpLIBACqAzV3VACSDCAnogAamCG+bNgMZvLE9fuUtShm3hnI6Qec0IMOiAAAQgAQAAAQAACEACAAAAAAAAAAAA==

> <PUBCHEM_IUPAC_OPENEYE_NAME>
2-[1-(3,4-dimethylphenyl)-4-methyl-7-oxo-pyrazolo[3,4-d]pyridazin-6-yl]-N-(3-methoxyphenyl)acetamide

> <PUBCHEM_IUPAC_CAS_NAME>
2-[1-(3,4-dimethylphenyl)-4-methyl-7-oxo-6-pyrazolo[3,4-d]pyridazinyl]-N-(3-methoxyphenyl)acetamide

> <PUBCHEM_IUPAC_NAME>
2-[1-(3,4-dimethylphenyl)-4-methyl-7-oxopyrazolo[3,4-d]pyridazin-6-yl]-N-(3-methoxyphenyl)acetamide

> <PUBCHEM_IUPAC_SYSTEMATIC_NAME>
2-[1-(3,4-dimethylphenyl)-4-methyl-7-oxidanylidene-pyrazolo[3,4-d]pyridazin-6-yl]-N-(3-methoxyphenyl)ethanamide

> <PUBCHEM_IUPAC_TRADITIONAL_NAME>
2-[1-(3,4-dimethylphenyl)-7-keto-4-methyl-pyrazolo[3,4-d]pyridazin-6-yl]-N-(3-methoxyphenyl)acetamide

> <PUBCHEM_IUPAC_INCHI>
InChI=1S/C23H23N5O3/c1-14-8-9-18(10-15(14)2)28-22-20(12-24-28)16(3)26-27(23(22)30)13-21(29)25-17-6-5-7-19(11-17)31-4/h5-12H,13H2,1-4H3,(H,25,29)

> <PUBCHEM_IUPAC_INCHIKEY>
NCMLEKFYJBPABL-UHFFFAOYSA-N

> <PUBCHEM_XLOGP3_AA>
3.1

> <PUBCHEM_EXACT_MASS>
417.18009

> <PUBCHEM_MOLECULAR_FORMULA>
C23H23N5O3

> <PUBCHEM_MOLECULAR_WEIGHT>
417.46042

> <PUBCHEM_OPENEYE_CAN_SMILES>
CC1=C(C=C(C=C1)N2C3=C(C=N2)C(=NN(C3=O)CC(=O)NC4=CC(=CC=C4)OC)C)C

> <PUBCHEM_OPENEYE_ISO_SMILES>
CC1=C(C=C(C=C1)N2C3=C(C=N2)C(=NN(C3=O)CC(=O)NC4=CC(=CC=C4)OC)C)C

> <PUBCHEM_CACTVS_TPSA>
88.8

> <PUBCHEM_MONOISOTOPIC_WEIGHT>
417.18009

> <PUBCHEM_TOTAL_CHARGE>
0

> <PUBCHEM_HEAVY_ATOM_COUNT>
31

> <PUBCHEM_ATOM_DEF_STEREO_COUNT>
0

> <PUBCHEM_ATOM_UDEF_STEREO_COUNT>
0

> <PUBCHEM_BOND_DEF_STEREO_COUNT>
0

> <PUBCHEM_BOND_UDEF_STEREO_COUNT>
0

> <PUBCHEM_ISOTOPIC_ATOM_COUNT>
0

> <PUBCHEM_COMPONENT_COUNT>
1

> <PUBCHEM_CACTVS_TAUTO_COUNT>
3

> <PUBCHEM_COORDINATE_TYPE>
1

> <PUBCHEM_BONDANNOTATIONS>
10  13  8

$$$$
