
  CDK     1223141415

 10 11  0  0  0  0  0  0  0  0999 V2000
    9.4931   -1.2674    0.0000 N   0  0  0  0  0  0  0  0  0  0  0  0
    9.4931    0.8020    0.0000 C   0  0  0  0  0  0  0  0  0  0  0  0
    8.5991    0.2673    0.0000 C   0  0  0  0  0  0  0  0  0  0  0  0
   10.3991    0.2881    0.0000 C   0  0  0  0  0  0  0  0  0  0  0  0
    8.5991   -0.7327    0.0000 C   0  0  0  0  0  0  0  0  0  0  0  0
   10.3991   -0.7535    0.0000 C   0  0  0  0  0  0  0  0  0  0  0  0
    6.8671    0.2673    0.0000 C   0  0  0  0  0  0  0  0  0  0  0  0
    7.7331    0.7673    0.0000 C   0  0  0  0  0  0  0  0  0  0  0  0
    7.7331   -1.2327    0.0000 C   0  0  0  0  0  0  0  0  0  0  0  0
    6.8671   -0.7327    0.0000 C   0  0  0  0  0  0  0  0  0  0  0  0
  1  5  1  0  0  0  0 
  1  6  1  0  0  0  0 
  2  3  1  0  0  0  0 
  2  4  1  0  0  0  0 
  3  5  1  0  0  0  0 
  3  8  1  0  0  0  0 
  4  6  1  0  0  0  0 
  5  9  1  0  0  0  0 
  7  8  1  0  0  0  0 
  7 10  1  0  0  0  0 
  9 10  1  0  0  0  0 
M  END
> <PUBCHEM_COMPOUND_CID>
64003633

$$$$

  CDK     1223141415

 10 11  0  0  0  0  0  0  0  0999 V2000
    5.1350    0.8877    0.0000 C   0  0  0  0  0  0  0  0  0  0  0  0
    5.1350    1.8877    0.0000 C   0  0  0  0  0  0  0  0  0  0  0  0
    4.2690    0.3877    0.0000 C   0  0  0  0  0  0  0  0  0  0  0  0
    6.0290    0.3530    0.0000 C   0  0  0  0  0  0  0  0  0  0  0  0
    4.2690    2.3877    0.0000 C   0  0  0  0  0  0  0  0  0  0  0  0
    6.0290    2.4223    0.0000 C   0  0  0  0  0  0  0  0  0  0  0  0
    3.4030    0.8877    0.0000 C   0  0  0  0  0  0  0  0  0  0  0  0
    6.9350    0.8669    0.0000 C   0  0  0  0  0  0  0  0  0  0  0  0
    3.4030    1.8877    0.0000 C   0  0  0  0  0  0  0  0  0  0  0  0
    6.9350    1.9085    0.0000 C   0  0  0  0  0  0  0  0  0  0  0  0
  1  2  1  0  0  0  0 
  1  3  1  0  0  0  0 
  1  4  1  0  0  0  0 
  2  5  1  0  0  0  0 
  2  6  1  0  0  0  0 
  3  7  1  0  0  0  0 
  4  8  1  0  0  0  0 
  5  9  1  0  0  0  0 
  6 10  1  0  0  0  0 
  7  9  1  0  0  0  0 
  8 10  1  0  0  0  0 
M  END
> <PUBCHEM_COMPOUND_CID>
58625834

$$$$
