
  CDK     0224152114

  6  6  0  0  0  0  0  0  0  0999 V2000
    3.7320   -2.5000    0.0000 C   0  0  0  0  0  0  0  0  0  0  0  0
    4.5981   -1.0000    0.0000 C   0  0  0  0  0  0  0  0  0  0  0  0
    3.7320   -1.5000    0.0000 C   0  0  0  0  0  0  0  0  0  0  0  0
    4.5981   -3.0000    0.0000 C   0  0  0  0  0  0  0  0  0  0  0  0
    5.4641   -1.5000    0.0000 C   0  0  0  0  0  0  0  0  0  0  0  0
    5.4641   -2.5000    0.0000 C   0  0  0  0  0  0  0  0  0  0  0  0
  1  3  1  0  0  0  0 
  1  4  1  0  0  0  0 
  2  3  1  0  0  0  0 
  2  5  1  0  0  0  0 
  4  6  1  0  0  0  0 
  5  6  1  0  0  0  0 
M  END
> <PUBCHEM_COMPOUND_CID>
62452948

$$$$

  CDK     0224152114

  6  6  0  0  0  0  0  0  0  0999 V2000
    6.5000    3.1651    0.0000 O   0  0  0  0  0  0  0  0  0  0  0  0
    6.5000    1.1651    0.0000 N   0  0  0  0  0  0  0  0  0  0  0  0
    7.3660    1.6651    0.0000 C   0  0  0  0  0  0  0  0  0  0  0  0
    5.6340    1.6651    0.0000 C   0  0  0  0  0  0  0  0  0  0  0  0
    7.3660    2.6651    0.0000 C   0  0  0  0  0  0  0  0  0  0  0  0
    5.6340    2.6651    0.0000 C   0  0  0  0  0  0  0  0  0  0  0  0
  1  5  1  0  0  0  0 
  1  6  1  0  0  0  0 
  2  3  1  0  0  0  0 
  2  4  1  0  0  0  0 
  3  5  1  0  0  0  0 
  4  6  1  0  0  0  0 
M  CHG  1   2   1
M  END
> <PUBCHEM_COMPOUND_CID>
2398094

$$$$

  CDK     0224152114

  6  6  0  0  0  0  0  0  0  0999 V2000
    3.7320    1.4400    0.0000 N   0  0  0  0  0  0  0  0  0  0  0  0
    2.8660    2.9400    0.0000 C   0  0  1  0  0  0  0  0  0  0  0  0
    3.7320    3.4400    0.0000 C   0  0  0  0  0  0  0  0  0  0  0  0
    4.5981    2.9400    0.0000 C   0  0  0  0  0  0  0  0  0  0  0  0
    2.8660    1.9400    0.0000 C   0  0  0  0  0  0  0  0  0  0  0  0
    4.5981    1.9400    0.0000 C   0  0  0  0  0  0  0  0  0  0  0  0
  1  5  1  0  0  0  0 
  1  6  1  0  0  0  0 
  2  3  1  0  0  0  0 
  2  5  1  0  0  0  0 
  3  4  1  0  0  0  0 
  4  6  1  0  0  0  0 
M  END
> <PUBCHEM_COMPOUND_CID>
51682807

$$$$
