16576575
  CDK     1229141544

 53 55  0  0  0  0  0  0  0  0999 V2000
    8.9282   -0.4050    0.0000 S   0  0  0  0  0  0  0  0  0  0  0  0
   15.8564   -2.4050    0.0000 F   0  0  0  0  0  0  0  0  0  0  0  0
   10.6603    0.5950    0.0000 O   0  0  0  0  0  0  0  0  0  0  0  0
   11.5263   -0.9050    0.0000 N   0  0  0  0  0  0  0  0  0  0  0  0
    6.3301   -0.9050    0.0000 N   0  0  0  0  0  0  0  0  0  0  0  0
    7.1962    0.5950    0.0000 N   0  0  0  0  0  0  0  0  0  0  0  0
    4.5981   -0.9050    0.0000 N   0  0  0  0  0  0  0  0  0  0  0  0
    5.4641    0.5950    0.0000 N   0  0  0  0  0  0  0  0  0  0  0  0
    6.3301    2.0950    0.0000 N   0  0  0  0  0  0  0  0  0  0  0  0
    9.7942   -0.9050    0.0000 C   0  0  3  0  0  0  0  0  0  0  0  0
    8.0622   -0.9050    0.0000 C   0  0  3  0  0  0  0  0  0  0  0  0
   10.6603   -0.4050    0.0000 C   0  0  0  0  0  0  0  0  0  0  0  0
    9.7942   -1.9050    0.0000 C   0  0  0  0  0  0  0  0  0  0  0  0
    7.1962   -0.4050    0.0000 C   0  0  0  0  0  0  0  0  0  0  0  0
    8.0622   -1.9050    0.0000 C   0  0  0  0  0  0  0  0  0  0  0  0
   12.3923   -0.4050    0.0000 C   0  0  0  0  0  0  0  0  0  0  0  0
   13.2583   -0.9050    0.0000 C   0  0  0  0  0  0  0  0  0  0  0  0
    5.4641   -0.4050    0.0000 C   0  0  0  0  0  0  0  0  0  0  0  0
   13.2583   -1.9050    0.0000 C   0  0  0  0  0  0  0  0  0  0  0  0
   14.1244   -0.4050    0.0000 C   0  0  0  0  0  0  0  0  0  0  0  0
    6.3301    1.0950    0.0000 C   0  0  0  0  0  0  0  0  0  0  0  0
   14.1244   -2.4050    0.0000 C   0  0  0  0  0  0  0  0  0  0  0  0
   14.9904   -0.9050    0.0000 C   0  0  0  0  0  0  0  0  0  0  0  0
    3.7320   -0.4050    0.0000 C   0  0  0  0  0  0  0  0  0  0  0  0
   14.9904   -1.9050    0.0000 C   0  0  0  0  0  0  0  0  0  0  0  0
    3.7320    0.5950    0.0000 C   0  0  0  0  0  0  0  0  0  0  0  0
    2.8660   -0.9050    0.0000 C   0  0  0  0  0  0  0  0  0  0  0  0
    2.8660    1.0950    0.0000 C   0  0  0  0  0  0  0  0  0  0  0  0
    2.0000   -0.4050    0.0000 C   0  0  0  0  0  0  0  0  0  0  0  0
    2.0000    0.5950    0.0000 C   0  0  0  0  0  0  0  0  0  0  0  0
    9.2573   -1.2150    0.0000 H   0  0  0  0  0  0  0  0  0  0  0  0
    8.5991   -1.2150    0.0000 H   0  0  0  0  0  0  0  0  0  0  0  0
    9.1742   -1.9050    0.0000 H   0  0  0  0  0  0  0  0  0  0  0  0
    9.7942   -2.5250    0.0000 H   0  0  0  0  0  0  0  0  0  0  0  0
   10.4142   -1.9050    0.0000 H   0  0  0  0  0  0  0  0  0  0  0  0
    7.4422   -1.9050    0.0000 H   0  0  0  0  0  0  0  0  0  0  0  0
    8.0622   -2.5250    0.0000 H   0  0  0  0  0  0  0  0  0  0  0  0
    8.6822   -1.9050    0.0000 H   0  0  0  0  0  0  0  0  0  0  0  0
   12.7908    0.0699    0.0000 H   0  0  0  0  0  0  0  0  0  0  0  0
   11.9938    0.0699    0.0000 H   0  0  0  0  0  0  0  0  0  0  0  0
   11.5263   -1.5250    0.0000 H   0  0  0  0  0  0  0  0  0  0  0  0
   12.7214   -2.2150    0.0000 H   0  0  0  0  0  0  0  0  0  0  0  0
   14.1244    0.2150    0.0000 H   0  0  0  0  0  0  0  0  0  0  0  0
    4.5981   -1.5250    0.0000 H   0  0  0  0  0  0  0  0  0  0  0  0
   14.1244   -3.0250    0.0000 H   0  0  0  0  0  0  0  0  0  0  0  0
   15.5273   -0.5950    0.0000 H   0  0  0  0  0  0  0  0  0  0  0  0
    4.2690    0.9050    0.0000 H   0  0  0  0  0  0  0  0  0  0  0  0
    2.8660   -1.5250    0.0000 H   0  0  0  0  0  0  0  0  0  0  0  0
    6.8671    2.4050    0.0000 H   0  0  0  0  0  0  0  0  0  0  0  0
    5.7932    2.4050    0.0000 H   0  0  0  0  0  0  0  0  0  0  0  0
    2.8660    1.7150    0.0000 H   0  0  0  0  0  0  0  0  0  0  0  0
    1.4631   -0.7150    0.0000 H   0  0  0  0  0  0  0  0  0  0  0  0
    1.4631    0.9050    0.0000 H   0  0  0  0  0  0  0  0  0  0  0  0
  1 10  1  0  0  0  0 
  1 11  1  0  0  0  0 
  2 25  1  0  0  0  0 
  3 12  2  0  0  0  0 
  4 12  1  0  0  0  0 
  4 16  1  0  0  0  0 
  4 41  1  0  0  0  0 
  5 14  1  0  0  0  0 
  5 18  2  0  0  0  0 
  6 14  2  0  0  0  0 
  6 21  1  0  0  0  0 
  7 18  1  0  0  0  0 
  7 24  1  0  0  0  0 
  7 44  1  0  0  0  0 
  8 18  1  0  0  0  0 
  8 21  2  0  0  0  0 
  9 21  1  0  0  0  0 
  9 49  1  0  0  0  0 
  9 50  1  0  0  0  0 
 10 12  1  0  0  0  0 
 10 13  1  0  0  0  0 
 10 31  1  0  0  0  0 
 11 14  1  0  0  0  0 
 11 15  1  0  0  0  0 
 11 32  1  0  0  0  0 
 13 33  1  0  0  0  0 
 13 34  1  0  0  0  0 
 13 35  1  0  0  0  0 
 15 36  1  0  0  0  0 
 15 37  1  0  0  0  0 
 15 38  1  0  0  0  0 
 16 17  1  0  0  0  0 
 16 39  1  0  0  0  0 
 16 40  1  0  0  0  0 
 17 19  2  0  0  0  0 
 17 20  1  0  0  0  0 
 19 22  1  0  0  0  0 
 19 42  1  0  0  0  0 
 20 23  2  0  0  0  0 
 20 43  1  0  0  0  0 
 22 25  2  0  0  0  0 
 22 45  1  0  0  0  0 
 23 25  1  0  0  0  0 
 23 46  1  0  0  0  0 
 24 26  2  0  0  0  0 
 24 27  1  0  0  0  0 
 26 28  1  0  0  0  0 
 26 47  1  0  0  0  0 
 27 29  2  0  0  0  0 
 27 48  1  0  0  0  0 
 28 30  2  0  0  0  0 
 28 51  1  0  0  0  0 
 29 30  1  0  0  0  0 
 29 52  1  0  0  0  0 
 30 53  1  0  0  0  0 
M  END
> <cdk:Title>
16576575

> <cdk:Remark>
null

> <PUBCHEM_COMPOUND_CID>
16576575

> <PUBCHEM_COMPOUND_CANONICALIZED>
1

> <PUBCHEM_CACTVS_COMPLEXITY>
530

> <PUBCHEM_CACTVS_HBOND_ACCEPTOR>
8

> <PUBCHEM_CACTVS_HBOND_DONOR>
3

> <PUBCHEM_CACTVS_ROTATABLE_BOND>
8

> <PUBCHEM_CACTVS_SUBSKEYS>
AAADceB7oQBAAAAAAAAAAAAAAAAAAAAAAAA8YIAAAAAAAAAB0AAAHwQQAAAADAjF2wyz0IbIEAioAidydACCgAkhArAJiIE4ZIiIKCLAmZGEIAholgLoyCcQgAAOAAAAAAAAAAAAAAAAAAAAAAAAAAAAAA==

> <PUBCHEM_IUPAC_OPENEYE_NAME>
2-[1-(4-amino-6-anilino-1,3,5-triazin-2-yl)ethylsulfanyl]-N-[(4-fluorophenyl)methyl]propanamide

> <PUBCHEM_IUPAC_CAS_NAME>
2-[1-(4-amino-6-anilino-1,3,5-triazin-2-yl)ethylthio]-N-[(4-fluorophenyl)methyl]propanamide

> <PUBCHEM_IUPAC_NAME>
2-[1-(4-amino-6-anilino-1,3,5-triazin-2-yl)ethylsulfanyl]-N-[(4-fluorophenyl)methyl]propanamide

> <PUBCHEM_IUPAC_SYSTEMATIC_NAME>
2-[1-(4-azanyl-6-phenylazanyl-1,3,5-triazin-2-yl)ethylsulfanyl]-N-[(4-fluorophenyl)methyl]propanamide

> <PUBCHEM_IUPAC_TRADITIONAL_NAME>
2-[1-(4-amino-6-anilino-s-triazin-2-yl)ethylthio]-N-(4-fluorobenzyl)propionamide

> <PUBCHEM_IUPAC_INCHI>
InChI=1S/C21H23FN6OS/c1-13(30-14(2)19(29)24-12-15-8-10-16(22)11-9-15)18-26-20(23)28-21(27-18)25-17-6-4-3-5-7-17/h3-11,13-14H,12H2,1-2H3,(H,24,29)(H3,23,25,26,27,28)

> <PUBCHEM_IUPAC_INCHIKEY>
OEHFTNBZUSJHJN-UHFFFAOYSA-N

> <PUBCHEM_XLOGP3_AA>
3.7

> <PUBCHEM_EXACT_MASS>
426.163809

> <PUBCHEM_MOLECULAR_FORMULA>
C21H23FN6OS

> <PUBCHEM_MOLECULAR_WEIGHT>
426.510323

> <PUBCHEM_OPENEYE_CAN_SMILES>
CC(C1=NC(=NC(=N1)NC2=CC=CC=C2)N)SC(C)C(=O)NCC3=CC=C(C=C3)F

> <PUBCHEM_OPENEYE_ISO_SMILES>
CC(C1=NC(=NC(=N1)NC2=CC=CC=C2)N)SC(C)C(=O)NCC3=CC=C(C=C3)F

> <PUBCHEM_CACTVS_TPSA>
131

> <PUBCHEM_MONOISOTOPIC_WEIGHT>
426.163809

> <PUBCHEM_TOTAL_CHARGE>
0

> <PUBCHEM_HEAVY_ATOM_COUNT>
30

> <PUBCHEM_ATOM_DEF_STEREO_COUNT>
0

> <PUBCHEM_ATOM_UDEF_STEREO_COUNT>
2

> <PUBCHEM_BOND_DEF_STEREO_COUNT>
0

> <PUBCHEM_BOND_UDEF_STEREO_COUNT>
0

> <PUBCHEM_ISOTOPIC_ATOM_COUNT>
0

> <PUBCHEM_COMPONENT_COUNT>
1

> <PUBCHEM_CACTVS_TAUTO_COUNT>
18

> <PUBCHEM_COORDINATE_TYPE>
1

> <PUBCHEM_BONDANNOTATIONS>
10  13  3

$$$$
