45146729
  CDK     0104151047

 42 43  0  0  0  0  0  0  0  0999 V2000
    4.5981    3.2500    0.0000 O   0  0  0  0  0  0  0  0  0  0  0  0
    2.8660   -1.7500    0.0000 N   0  0  0  0  0  0  0  0  0  0  0  0
    3.7320    1.7500    0.0000 N   0  0  0  0  0  0  0  0  0  0  0  0
    5.4641    2.7500    0.0000 N   0  0  0  0  0  0  0  0  0  0  0  0
    2.8660   -2.7500    0.0000 C   0  0  0  0  0  0  0  0  0  0  0  0
    4.5981    1.2500    0.0000 C   0  0  0  0  0  0  0  0  0  0  0  0
    2.0000   -3.2500    0.0000 C   0  0  0  0  0  0  0  0  0  0  0  0
    3.7320   -3.2500    0.0000 C   0  0  0  0  0  0  0  0  0  0  0  0
    4.5981    0.2500    0.0000 C   0  0  0  0  0  0  0  0  0  0  0  0
    6.3301    3.2500    0.0000 C   0  0  0  0  0  0  0  0  0  0  0  0
    3.7320   -1.2500    0.0000 C   0  0  0  0  0  0  0  0  0  0  0  0
    3.7320   -0.2500    0.0000 C   0  0  0  0  0  0  0  0  0  0  0  0
    5.4641    1.7500    0.0000 C   0  0  0  0  0  0  0  0  0  0  0  0
    2.0000   -4.2500    0.0000 C   0  0  0  0  0  0  0  0  0  0  0  0
    3.7320   -4.2500    0.0000 C   0  0  0  0  0  0  0  0  0  0  0  0
    2.8660   -4.7500    0.0000 C   0  0  0  0  0  0  0  0  0  0  0  0
    7.1962    2.7500    0.0000 C   0  0  0  0  0  0  0  0  0  0  0  0
    6.3301    4.2500    0.0000 C   0  0  0  0  0  0  0  0  0  0  0  0
    8.0622    3.2500    0.0000 C   0  0  0  0  0  0  0  0  0  0  0  0
    7.1962    4.7500    0.0000 C   0  0  0  0  0  0  0  0  0  0  0  0
    8.0622    4.2500    0.0000 C   0  0  0  0  0  0  0  0  0  0  0  0
    3.7320    2.7500    0.0000 C   0  0  0  0  0  0  0  0  0  0  0  0
    2.8660    3.2500    0.0000 C   0  0  0  0  0  0  0  0  0  0  0  0
    2.3291   -1.4400    0.0000 H   0  0  0  0  0  0  0  0  0  0  0  0
    1.4631   -2.9400    0.0000 H   0  0  0  0  0  0  0  0  0  0  0  0
    4.2690   -2.9400    0.0000 H   0  0  0  0  0  0  0  0  0  0  0  0
    5.1350   -0.0600    0.0000 H   0  0  0  0  0  0  0  0  0  0  0  0
    4.2690   -1.5600    0.0000 H   0  0  0  0  0  0  0  0  0  0  0  0
    3.1951    0.0600    0.0000 H   0  0  0  0  0  0  0  0  0  0  0  0
    6.0010    1.4400    0.0000 H   0  0  0  0  0  0  0  0  0  0  0  0
    1.4631   -4.5600    0.0000 H   0  0  0  0  0  0  0  0  0  0  0  0
    4.2690   -4.5600    0.0000 H   0  0  0  0  0  0  0  0  0  0  0  0
    3.1951    1.4400    0.0000 H   0  0  0  0  0  0  0  0  0  0  0  0
    2.8660   -5.3700    0.0000 H   0  0  0  0  0  0  0  0  0  0  0  0
    7.1962    2.1300    0.0000 H   0  0  0  0  0  0  0  0  0  0  0  0
    5.7932    4.5600    0.0000 H   0  0  0  0  0  0  0  0  0  0  0  0
    8.5991    2.9400    0.0000 H   0  0  0  0  0  0  0  0  0  0  0  0
    7.1962    5.3700    0.0000 H   0  0  0  0  0  0  0  0  0  0  0  0
    8.5991    4.5600    0.0000 H   0  0  0  0  0  0  0  0  0  0  0  0
    3.1760    3.7869    0.0000 H   0  0  0  0  0  0  0  0  0  0  0  0
    2.3291    3.5600    0.0000 H   0  0  0  0  0  0  0  0  0  0  0  0
    2.5560    2.7131    0.0000 H   0  0  0  0  0  0  0  0  0  0  0  0
  1 22  2  0  0  0  0 
  2  5  1  0  0  0  0 
  2 11  1  0  0  0  0 
  2 24  1  0  0  0  0 
  3  6  1  0  0  0  0 
  3 22  1  0  0  0  0 
  3 33  1  0  0  0  0 
  4 10  1  0  0  0  0 
  4 13  2  0  0  0  0 
  5  7  2  0  0  0  0 
  5  8  1  0  0  0  0 
  6  9  2  0  0  0  0 
  6 13  1  0  0  0  0 
  7 14  1  0  0  0  0 
  7 25  1  0  0  0  0 
  8 15  2  0  0  0  0 
  8 26  1  0  0  0  0 
  9 12  1  0  0  0  0 
  9 27  1  0  0  0  0 
 10 17  2  0  0  0  0 
 10 18  1  0  0  0  0 
 11 12  2  0  0  0  0 
 11 28  1  0  0  0  0 
 12 29  1  0  0  0  0 
 13 30  1  0  0  0  0 
 14 16  2  0  0  0  0 
 14 31  1  0  0  0  0 
 15 16  1  0  0  0  0 
 15 32  1  0  0  0  0 
 16 34  1  0  0  0  0 
 17 19  1  0  0  0  0 
 17 35  1  0  0  0  0 
 18 20  2  0  0  0  0 
 18 36  1  0  0  0  0 
 19 21  2  0  0  0  0 
 19 37  1  0  0  0  0 
 20 21  1  0  0  0  0 
 20 38  1  0  0  0  0 
 21 39  1  0  0  0  0 
 22 23  1  0  0  0  0 
 23 40  1  0  0  0  0 
 23 41  1  0  0  0  0 
 23 42  1  0  0  0  0 
M  END
> <cdk:Title>
45146729

> <cdk:Remark>
null

> <PUBCHEM_COMPOUND_CID>
45146729

> <PUBCHEM_COMPOUND_CANONICALIZED>
1

> <PUBCHEM_CACTVS_COMPLEXITY>
442

> <PUBCHEM_CACTVS_HBOND_ACCEPTOR>
3

> <PUBCHEM_CACTVS_HBOND_DONOR>
2

> <PUBCHEM_CACTVS_ROTATABLE_BOND>
6

> <PUBCHEM_CACTVS_SUBSKEYS>
AAADceB7IAAAAAAAAAAAAAAAAAAAAAAAAAAwYAAAAAAAAAABQAAAHgAQAAAACAjBkAQywILAAACoADV3VACCAAAhAgAIiIAIZJgIICLAkZGEIAhglADIyAcQAAAAAAAAAAAAAAAAAAAAAAAAAAAAAAAAAA==

> <PUBCHEM_IUPAC_OPENEYE_NAME>
N-[(1Z,3E)-4-anilino-1-(phenyliminomethyl)buta-1,3-dienyl]acetamide

> <PUBCHEM_IUPAC_CAS_NAME>
N-[(2Z,4E)-5-anilino-1-phenyliminopenta-2,4-dien-2-yl]acetamide

> <PUBCHEM_IUPAC_NAME>
N-[(2Z,4E)-5-anilino-1-phenyliminopenta-2,4-dien-2-yl]acetamide

> <PUBCHEM_IUPAC_SYSTEMATIC_NAME>
N-[(2Z,4E)-5-phenylazanyl-1-phenylimino-penta-2,4-dien-2-yl]ethanamide

> <PUBCHEM_IUPAC_TRADITIONAL_NAME>
N-[(1Z,3E)-4-anilino-1-(phenyliminomethyl)buta-1,3-dienyl]acetamide

> <PUBCHEM_IUPAC_INCHI>
InChI=1S/C19H19N3O/c1-16(23)22-19(15-21-18-11-6-3-7-12-18)13-8-14-20-17-9-4-2-5-10-17/h2-15,20H,1H3,(H,22,23)/b14-8+,19-13-,21-15?

> <PUBCHEM_IUPAC_INCHIKEY>
SCYSRCOCACWHIZ-UVFRUFNFSA-N

> <PUBCHEM_XLOGP3_AA>
3.4

> <PUBCHEM_EXACT_MASS>
305.152812

> <PUBCHEM_MOLECULAR_FORMULA>
C19H19N3O

> <PUBCHEM_MOLECULAR_WEIGHT>
305.37366

> <PUBCHEM_OPENEYE_CAN_SMILES>
CC(=O)NC(=CC=CNC1=CC=CC=C1)C=NC2=CC=CC=C2

> <PUBCHEM_OPENEYE_ISO_SMILES>
CC(=O)N/C(=C\C=C\NC1=CC=CC=C1)/C=NC2=CC=CC=C2

> <PUBCHEM_CACTVS_TPSA>
53.5

> <PUBCHEM_MONOISOTOPIC_WEIGHT>
305.152812

> <PUBCHEM_TOTAL_CHARGE>
0

> <PUBCHEM_HEAVY_ATOM_COUNT>
23

> <PUBCHEM_ATOM_DEF_STEREO_COUNT>
0

> <PUBCHEM_ATOM_UDEF_STEREO_COUNT>
0

> <PUBCHEM_BOND_DEF_STEREO_COUNT>
2

> <PUBCHEM_BOND_UDEF_STEREO_COUNT>
0

> <PUBCHEM_ISOTOPIC_ATOM_COUNT>
0

> <PUBCHEM_COMPONENT_COUNT>
1

> <PUBCHEM_CACTVS_TAUTO_COUNT>
10

> <PUBCHEM_COORDINATE_TYPE>
1

> <PUBCHEM_BONDANNOTATIONS>
10  17  8

$$$$
