
  CDK     0224151638

 16 17  0  0  0  0  0  0  0  0999 V2000
    8.8712   -3.6639    0.0000 S   0  0  0  0  0  0  0  0  0  0  0  0
    6.3301    0.9239    0.0000 N   0  0  0  0  0  0  0  0  0  0  0  0
    7.1962   -0.5761    0.0000 C   0  0  0  0  0  0  0  0  0  0  0  0
    7.1962   -1.5761    0.0000 C   0  0  0  0  0  0  0  0  0  0  0  0
    5.4641    1.4239    0.0000 C   0  0  0  0  0  0  0  0  0  0  0  0
    6.3301   -0.0761    0.0000 C   0  0  0  0  0  0  0  0  0  0  0  0
    4.5981    2.9239    0.0000 C   0  0  0  0  0  0  0  0  0  0  0  0
    5.4641    2.4239    0.0000 C   0  0  0  0  0  0  0  0  0  0  0  0
    8.0622   -2.0761    0.0000 C   0  0  0  0  0  0  0  0  0  0  0  0
    3.7321    2.4239    0.0000 C   0  0  0  0  0  0  0  0  0  0  0  0
    4.5981    0.9239    0.0000 C   0  0  0  0  0  0  0  0  0  0  0  0
    3.7321    1.4239    0.0000 C   0  0  0  0  0  0  0  0  0  0  0  0
    8.0622   -3.0761    0.0000 C   0  0  0  0  0  0  0  0  0  0  0  0
    7.2532   -3.6639    0.0000 C   0  0  0  0  0  0  0  0  0  0  0  0
    7.5622   -4.6149    0.0000 C   0  0  0  0  0  0  0  0  0  0  0  0
    8.5622   -4.6149    0.0000 C   0  0  0  0  0  0  0  0  0  0  0  0
  1 13  1  0  0  0  0 
  1 16  1  0  0  0  0 
  2  5  1  0  0  0  0 
  2  6  1  0  0  0  0 
  3  4  1  0  0  0  0 
  3  6  1  0  0  0  0 
  4  9  1  0  0  0  0 
  5  8  1  0  0  0  0 
  5 11  1  0  0  0  0 
  7  8  1  0  0  0  0 
  7 10  1  0  0  0  0 
  9 13  1  0  0  0  0 
 10 12  1  0  0  0  0 
 11 12  1  0  0  0  0 
 13 14  1  0  0  0  0 
 14 15  1  0  0  0  0 
 15 16  1  0  0  0  0 
M  END
> <PUBCHEM_COMPOUND_CID>
33307105

$$$$
