56578785
  CDK     1229141544

 44 46  0  0  0  0  0  0  0  0999 V2000
    2.7680    2.5138    0.0000 Cl  0  0  0  0  0  0  0  0  0  0  0  0
    3.0000    0.6478    0.0000 S   0  0  0  0  0  0  0  0  0  0  0  0
    3.0000   -0.3522    0.0000 O   0  0  0  0  0  0  0  0  0  0  0  0
    3.0000    1.6477    0.0000 O   0  0  0  0  0  0  0  0  0  0  0  0
    5.5001   -3.6824    0.0000 O   0  0  0  0  0  0  0  0  0  0  0  0
    7.0001   -2.8163    0.0000 O   0  0  0  0  0  0  0  0  0  0  0  0
    4.0000    0.6477    0.0000 N   0  0  3  0  0  0  0  0  0  0  0  0
    6.2600    2.4791    0.0000 N   0  0  0  0  0  0  0  0  0  0  0  0
    4.5000    1.5138    0.0000 C   0  0  0  0  0  0  0  0  0  0  0  0
    4.5000    2.5138    0.0000 C   0  0  0  0  0  0  0  0  0  0  0  0
    4.5000   -0.2183    0.0000 C   0  0  0  0  0  0  0  0  0  0  0  0
    5.3660    3.0138    0.0000 C   0  0  0  0  0  0  0  0  0  0  0  0
    5.3660    4.0138    0.0000 C   0  0  0  0  0  0  0  0  0  0  0  0
    3.6340    3.0138    0.0000 C   0  0  0  0  0  0  0  0  0  0  0  0
    2.0000    0.6477    0.0000 C   0  0  0  0  0  0  0  0  0  0  0  0
    5.5001   -0.2183    0.0000 C   0  0  0  0  0  0  0  0  0  0  0  0
    4.0000   -1.0843    0.0000 C   0  0  0  0  0  0  0  0  0  0  0  0
    4.5000    4.5138    0.0000 C   0  0  0  0  0  0  0  0  0  0  0  0
    3.6340    4.0138    0.0000 C   0  0  0  0  0  0  0  0  0  0  0  0
    6.0001   -1.0843    0.0000 C   0  0  0  0  0  0  0  0  0  0  0  0
    4.5000   -1.9504    0.0000 C   0  0  0  0  0  0  0  0  0  0  0  0
    6.2600    4.5484    0.0000 C   0  0  0  0  0  0  0  0  0  0  0  0
    5.5001   -1.9503    0.0000 C   0  0  0  0  0  0  0  0  0  0  0  0
    7.1660    4.0346    0.0000 C   0  0  0  0  0  0  0  0  0  0  0  0
    7.1660    2.9929    0.0000 C   0  0  0  0  0  0  0  0  0  0  0  0
    6.0001   -2.8164    0.0000 C   0  0  0  0  0  0  0  0  0  0  0  0
    6.0001   -4.5484    0.0000 C   0  0  0  0  0  0  0  0  0  0  0  0
    4.8985    1.0388    0.0000 H   0  0  0  0  0  0  0  0  0  0  0  0
    3.9011    1.6742    0.0000 H   0  0  0  0  0  0  0  0  0  0  0  0
    2.0000    1.2677    0.0000 H   0  0  0  0  0  0  0  0  0  0  0  0
    1.3800    0.6477    0.0000 H   0  0  0  0  0  0  0  0  0  0  0  0
    2.0000    0.0277    0.0000 H   0  0  0  0  0  0  0  0  0  0  0  0
    5.8101    0.3187    0.0000 H   0  0  0  0  0  0  0  0  0  0  0  0
    3.3800   -1.0843    0.0000 H   0  0  0  0  0  0  0  0  0  0  0  0
    4.5000    5.1338    0.0000 H   0  0  0  0  0  0  0  0  0  0  0  0
    3.0970    4.3238    0.0000 H   0  0  0  0  0  0  0  0  0  0  0  0
    6.6201   -1.0843    0.0000 H   0  0  0  0  0  0  0  0  0  0  0  0
    4.1900   -2.4873    0.0000 H   0  0  0  0  0  0  0  0  0  0  0  0
    6.2528    5.1684    0.0000 H   0  0  0  0  0  0  0  0  0  0  0  0
    7.7018    4.3466    0.0000 H   0  0  0  0  0  0  0  0  0  0  0  0
    7.7018    2.6809    0.0000 H   0  0  0  0  0  0  0  0  0  0  0  0
    5.4631   -4.8584    0.0000 H   0  0  0  0  0  0  0  0  0  0  0  0
    6.3101   -5.0853    0.0000 H   0  0  0  0  0  0  0  0  0  0  0  0
    6.5370   -4.2384    0.0000 H   0  0  0  0  0  0  0  0  0  0  0  0
  1 14  1  0  0  0  0 
  2  3  2  0  0  0  0 
  2  4  2  0  0  0  0 
  2  7  1  0  0  0  0 
  2 15  1  0  0  0  0 
  5 26  1  0  0  0  0 
  5 27  1  0  0  0  0 
  6 26  2  0  0  0  0 
  7  9  1  0  0  0  0 
  7 11  1  0  0  0  0 
  8 12  1  0  0  0  0 
  8 25  2  0  0  0  0 
  9 10  1  0  0  0  0 
  9 28  1  0  0  0  0 
  9 29  1  0  0  0  0 
 10 12  1  0  0  0  0 
 10 14  2  0  0  0  0 
 11 16  2  0  0  0  0 
 11 17  1  0  0  0  0 
 12 13  2  0  0  0  0 
 13 18  1  0  0  0  0 
 13 22  1  0  0  0  0 
 14 19  1  0  0  0  0 
 15 30  1  0  0  0  0 
 15 31  1  0  0  0  0 
 15 32  1  0  0  0  0 
 16 20  1  0  0  0  0 
 16 33  1  0  0  0  0 
 17 21  2  0  0  0  0 
 17 34  1  0  0  0  0 
 18 19  2  0  0  0  0 
 18 35  1  0  0  0  0 
 19 36  1  0  0  0  0 
 20 23  2  0  0  0  0 
 20 37  1  0  0  0  0 
 21 23  1  0  0  0  0 
 21 38  1  0  0  0  0 
 22 24  2  0  0  0  0 
 22 39  1  0  0  0  0 
 23 26  1  0  0  0  0 
 24 25  1  0  0  0  0 
 24 40  1  0  0  0  0 
 25 41  1  0  0  0  0 
 27 42  1  0  0  0  0 
 27 43  1  0  0  0  0 
 27 44  1  0  0  0  0 
M  END
> <cdk:Title>
56578785

> <cdk:Remark>
null

> <PUBCHEM_COMPOUND_CID>
56578785

> <PUBCHEM_COMPOUND_CANONICALIZED>
1

> <PUBCHEM_CACTVS_COMPLEXITY>
616

> <PUBCHEM_CACTVS_HBOND_ACCEPTOR>
6

> <PUBCHEM_CACTVS_HBOND_DONOR>
0

> <PUBCHEM_CACTVS_ROTATABLE_BOND>
6

> <PUBCHEM_CACTVS_SUBSKEYS>
AAADceB7OABEAAAAAAAAAAAAAAAAAAAAAAA8YIAAAAAAAACx9AAAHgYAQAAADArBnia+yPIIFAKoAzT3THCCgCA1ByAI2CE4btgIJvLB95mEMQhkwAHI6YeY2eOeDAACAAIDAAAYAAQABAYAAAAAAAAAAA==

> <PUBCHEM_IUPAC_OPENEYE_NAME>
methyl 4-[(7-chloro-8-quinolyl)methyl-methylsulfonyl-amino]benzoate

> <PUBCHEM_IUPAC_CAS_NAME>
4-[(7-chloro-8-quinolinyl)methyl-methylsulfonylamino]benzoic acid methyl ester

> <PUBCHEM_IUPAC_NAME>
methyl 4-[(7-chloroquinolin-8-yl)methyl-methylsulfonylamino]benzoate

> <PUBCHEM_IUPAC_SYSTEMATIC_NAME>
methyl 4-[(7-chloranylquinolin-8-yl)methyl-methylsulfonyl-amino]benzoate

> <PUBCHEM_IUPAC_TRADITIONAL_NAME>
4-[(7-chloro-8-quinolyl)methyl-mesyl-amino]benzoic acid methyl ester

> <PUBCHEM_IUPAC_INCHI>
InChI=1S/C19H17ClN2O4S/c1-26-19(23)14-5-8-15(9-6-14)22(27(2,24)25)12-16-17(20)10-7-13-4-3-11-21-18(13)16/h3-11H,12H2,1-2H3

> <PUBCHEM_IUPAC_INCHIKEY>
MXLRDPMZKCCUSK-UHFFFAOYSA-N

> <PUBCHEM_XLOGP3_AA>
3.3

> <PUBCHEM_EXACT_MASS>
404.059756

> <PUBCHEM_MOLECULAR_FORMULA>
C19H17ClN2O4S

> <PUBCHEM_MOLECULAR_WEIGHT>
404.86728

> <PUBCHEM_OPENEYE_CAN_SMILES>
COC(=O)C1=CC=C(C=C1)N(CC2=C(C=CC3=C2N=CC=C3)Cl)S(=O)(=O)C

> <PUBCHEM_OPENEYE_ISO_SMILES>
COC(=O)C1=CC=C(C=C1)N(CC2=C(C=CC3=C2N=CC=C3)Cl)S(=O)(=O)C

> <PUBCHEM_CACTVS_TPSA>
85

> <PUBCHEM_MONOISOTOPIC_WEIGHT>
404.059756

> <PUBCHEM_TOTAL_CHARGE>
0

> <PUBCHEM_HEAVY_ATOM_COUNT>
27

> <PUBCHEM_ATOM_DEF_STEREO_COUNT>
0

> <PUBCHEM_ATOM_UDEF_STEREO_COUNT>
0

> <PUBCHEM_BOND_DEF_STEREO_COUNT>
0

> <PUBCHEM_BOND_UDEF_STEREO_COUNT>
0

> <PUBCHEM_ISOTOPIC_ATOM_COUNT>
0

> <PUBCHEM_COMPONENT_COUNT>
1

> <PUBCHEM_CACTVS_TAUTO_COUNT>
1

> <PUBCHEM_COORDINATE_TYPE>
1

> <PUBCHEM_BONDANNOTATIONS>
10  12  8

$$$$
