
  CDK     0224151638

 13 14  0  0  0  0  0  0  0  0999 V2000
    5.1350    1.5000    0.0000 C   0  0  3  0  0  0  0  0  0  0  0  0
    5.1350    2.5000    0.0000 C   0  0  3  0  0  0  0  0  0  0  0  0
    6.0010    3.0000    0.0000 C   0  0  0  0  0  0  0  0  0  0  0  0
    6.0010    1.0000    0.0000 C   0  0  0  0  0  0  0  0  0  0  0  0
    4.2690    1.0000    0.0000 C   0  0  0  0  0  0  0  0  0  0  0  0
    6.8671    2.5000    0.0000 C   0  0  0  0  0  0  0  0  0  0  0  0
    6.8671    1.5000    0.0000 C   0  0  0  0  0  0  0  0  0  0  0  0
    4.2690    0.0000    0.0000 C   0  0  0  0  0  0  0  0  0  0  0  0
    3.4030   -0.5000    0.0000 C   0  0  0  0  0  0  0  0  0  0  0  0
    5.1350   -0.5000    0.0000 C   0  0  0  0  0  0  0  0  0  0  0  0
    4.2690   -2.0000    0.0000 C   0  0  0  0  0  0  0  0  0  0  0  0
    3.4030   -1.5000    0.0000 C   0  0  0  0  0  0  0  0  0  0  0  0
    5.1350   -1.5000    0.0000 C   0  0  0  0  0  0  0  0  0  0  0  0
  1  2  1  0  0  0  0 
  1  4  1  0  0  0  0 
  1  5  1  0  0  0  0 
  2  3  1  0  0  0  0 
  3  6  1  0  0  0  0 
  4  7  1  0  0  0  0 
  5  8  1  0  0  0  0 
  6  7  1  0  0  0  0 
  8  9  1  0  0  0  0 
  8 10  1  0  0  0  0 
  9 12  1  0  0  0  0 
 10 13  1  0  0  0  0 
 11 12  1  0  0  0  0 
 11 13  1  0  0  0  0 
M  END
> <PUBCHEM_COMPOUND_CID>
68742355

$$$$

  CDK     0224151638

 13 14  0  0  0  0  0  0  0  0999 V2000
    2.3082    0.3482    0.0000 O   0  0  0  0  0  0  0  0  0  0  0  0
    4.6876   -0.5178    0.0000 C   0  0  0  0  0  0  0  0  0  0  0  0
    5.1876    0.3482    0.0000 C   0  0  0  0  0  0  0  0  0  0  0  0
    3.7479   -0.8598    0.0000 C   0  0  0  0  0  0  0  0  0  0  0  0
    5.0139    1.3330    0.0000 C   0  0  0  0  0  0  0  0  0  0  0  0
    3.2479    1.9758    0.0000 C   0  0  0  0  0  0  0  0  0  0  0  0
    2.8082   -0.5178    0.0000 C   0  0  0  0  0  0  0  0  0  0  0  0
    4.2479    1.9758    0.0000 C   0  0  0  0  0  0  0  0  0  0  0  0
    2.4818    1.3330    0.0000 C   0  0  0  0  0  0  0  0  0  0  0  0
    3.9445   -1.8827    0.0000 C   0  0  0  0  0  0  0  0  0  0  0  0
    2.0000   -1.1750    0.0000 C   0  0  0  0  0  0  0  0  0  0  0  0
    3.1518   -2.5584    0.0000 C   0  0  0  0  0  0  0  0  0  0  0  0
    2.1730   -2.2022    0.0000 C   0  0  0  0  0  0  0  0  0  0  0  0
  1  7  1  0  0  0  0 
  1  9  1  0  0  0  0 
  2  3  1  0  0  0  0 
  2  4  1  0  0  0  0 
  3  5  1  0  0  0  0 
  4  7  1  0  0  0  0 
  4 10  1  0  0  0  0 
  5  8  1  0  0  0  0 
  6  8  1  0  0  0  0 
  6  9  1  0  0  0  0 
  7 11  1  0  0  0  0 
 10 12  1  0  0  0  0 
 11 13  1  0  0  0  0 
 12 13  1  0  0  0  0 
M  END
> <PUBCHEM_COMPOUND_CID>
45094499

$$$$
