
  CDK     0224152114

 34 40  0  0  0  0  0  0  0  0999 V2000
    8.3941    2.8693    0.0000 N   0  0  0  0  0  0  0  0  0  0  0  0
    7.5706   -2.8848    0.0000 N   0  0  0  0  0  0  0  0  0  0  0  0
    7.1962   -0.2056    0.0000 C   0  0  3  0  0  0  0  0  0  0  0  0
    7.2122   -1.2471    0.0000 C   0  0  3  0  0  0  0  0  0  0  0  0
    8.0622    1.2944    0.0000 C   0  0  3  0  0  0  0  0  0  0  0  0
    7.1962    1.7944    0.0000 C   0  0  3  0  0  0  0  0  0  0  0  0
    8.0622    0.2944    0.0000 C   0  0  0  0  0  0  0  0  0  0  0  0
    6.3301    1.2944    0.0000 C   0  0  3  0  0  0  0  0  0  0  0  0
    6.3301    0.2944    0.0000 C   0  0  0  0  0  0  0  0  0  0  0  0
    6.3142   -1.7748    0.0000 C   0  0  3  0  0  0  0  0  0  0  0  0
    5.4121   -1.2540    0.0000 C   0  0  0  0  0  0  0  0  0  0  0  0
    5.4201   -0.2124    0.0000 C   0  0  0  0  0  0  0  0  0  0  0  0
    8.7992    1.9615    0.0000 C   0  0  0  0  0  0  0  0  0  0  0  0
    7.4054    2.7662    0.0000 C   0  0  0  0  0  0  0  0  0  0  0  0
    7.9852   -1.9360    0.0000 C   0  0  0  0  0  0  0  0  0  0  0  0
    6.5399   -2.7854    0.0000 C   0  0  0  0  0  0  0  0  0  0  0  0
    5.4641    1.7944    0.0000 C   0  0  0  0  0  0  0  0  0  0  0  0
    5.4641    2.7944    0.0000 C   0  0  0  0  0  0  0  0  0  0  0  0
    4.5981    1.2944    0.0000 C   0  0  0  0  0  0  0  0  0  0  0  0
    8.8941    3.7353    0.0000 C   0  0  0  0  0  0  0  0  0  0  0  0
    8.0772   -3.7470    0.0000 C   0  0  0  0  0  0  0  0  0  0  0  0
    4.5981    3.2944    0.0000 C   0  0  0  0  0  0  0  0  0  0  0  0
    3.7320    1.7944    0.0000 C   0  0  0  0  0  0  0  0  0  0  0  0
    9.8941    3.7353    0.0000 C   0  0  0  0  0  0  0  0  0  0  0  0
    8.3941    4.6013    0.0000 C   0  0  0  0  0  0  0  0  0  0  0  0
    3.7320    2.7944    0.0000 C   0  0  0  0  0  0  0  0  0  0  0  0
    7.5839   -4.6168    0.0000 C   0  0  0  0  0  0  0  0  0  0  0  0
    9.0772   -3.7392    0.0000 C   0  0  0  0  0  0  0  0  0  0  0  0
    8.8941    5.4674    0.0000 C   0  0  0  0  0  0  0  0  0  0  0  0
   10.3941    4.6013    0.0000 C   0  0  0  0  0  0  0  0  0  0  0  0
    8.0906   -5.4790    0.0000 C   0  0  0  0  0  0  0  0  0  0  0  0
    9.5839   -4.6014    0.0000 C   0  0  0  0  0  0  0  0  0  0  0  0
    9.8941    5.4674    0.0000 C   0  0  0  0  0  0  0  0  0  0  0  0
    9.0906   -5.4712    0.0000 C   0  0  0  0  0  0  0  0  0  0  0  0
  1 13  1  0  0  0  0 
  1 14  1  0  0  0  0 
  1 20  1  0  0  0  0 
  2 15  1  0  0  0  0 
  2 16  1  0  0  0  0 
  2 21  1  0  0  0  0 
  3  4  1  0  0  0  0 
  3  7  1  0  0  0  0 
  3  9  1  0  0  0  0 
  4 10  1  0  0  0  0 
  4 15  1  0  0  0  0 
  5  6  1  0  0  0  0 
  5  7  1  0  0  0  0 
  5 13  1  0  0  0  0 
  6  8  1  0  0  0  0 
  6 14  1  0  0  0  0 
  8  9  1  0  0  0  0 
  8 17  1  0  0  0  0 
  9 12  1  0  0  0  0 
 10 11  1  0  0  0  0 
 10 16  1  0  0  0  0 
 11 12  1  0  0  0  0 
 17 18  1  0  0  0  0 
 17 19  1  0  0  0  0 
 18 22  1  0  0  0  0 
 19 23  1  0  0  0  0 
 20 24  1  0  0  0  0 
 20 25  1  0  0  0  0 
 21 27  1  0  0  0  0 
 21 28  1  0  0  0  0 
 22 26  1  0  0  0  0 
 23 26  1  0  0  0  0 
 24 30  1  0  0  0  0 
 25 29  1  0  0  0  0 
 27 31  1  0  0  0  0 
 28 32  1  0  0  0  0 
 29 33  1  0  0  0  0 
 30 33  1  0  0  0  0 
 31 34  1  0  0  0  0 
 32 34  1  0  0  0  0 
M  END
> <PUBCHEM_COMPOUND_CID>
3437639

$$$$
