
  CDK     0202151413

 27 26  0  0  0  0  0  0  0  0999 V2000
    4.5981    3.0000    0.0000 Cl  0  0  0  0  0  0  0  0  0  0  0  0
    7.1962    1.5000    0.0000 S   0  0  0  0  0  0  0  0  0  0  0  0
    2.8660    0.0000    0.0000 O   0  0  0  0  0  0  0  0  0  0  0  0
    8.0622    0.0000    0.0000 O   0  0  0  0  0  0  0  0  0  0  0  0
    8.9282    2.5000    0.0000 O   0  0  0  0  0  0  0  0  0  0  0  0
    6.3301    0.0000    0.0000 N   0  0  0  0  0  0  0  0  0  0  0  0
    9.7942    1.0000    0.0000 N   0  0  0  0  0  0  0  0  0  0  0  0
    5.4641    3.5000    0.0000 N   0  0  0  0  0  0  0  0  0  0  0  0
    4.5981    1.0000    0.0000 C   0  0  3  0  0  0  0  0  0  0  0  0
    4.5981    0.0000    0.0000 C   0  0  0  0  0  0  0  0  0  0  0  0
    3.7320    1.5000    0.0000 C   0  0  0  0  0  0  0  0  0  0  0  0
    5.4641    1.5000    0.0000 C   0  0  0  0  0  0  0  0  0  0  0  0
    3.7320   -0.5000    0.0000 C   0  0  0  0  0  0  0  0  0  0  0  0
    3.7320    2.5000    0.0000 C   0  0  0  0  0  0  0  0  0  0  0  0
    2.8660    1.0000    0.0000 C   0  0  0  0  0  0  0  0  0  0  0  0
    6.3301    1.0000    0.0000 C   0  0  0  0  0  0  0  0  0  0  0  0
    3.7320   -1.5000    0.0000 C   0  0  0  0  0  0  0  0  0  0  0  0
    2.8660    3.0000    0.0000 C   0  0  0  0  0  0  0  0  0  0  0  0
    2.0000    1.5000    0.0000 C   0  0  0  0  0  0  0  0  0  0  0  0
    5.4641    2.5000    0.0000 C   0  0  0  0  0  0  0  0  0  0  0  0
    8.0622    1.0000    0.0000 C   0  0  0  0  0  0  0  0  0  0  0  0
   10.6603    1.5000    0.0000 C   0  0  0  0  0  0  0  0  0  0  0  0
    7.1962   -0.5000    0.0000 C   0  0  0  0  0  0  0  0  0  0  0  0
    8.9282    1.5000    0.0000 C   0  0  0  0  0  0  0  0  0  0  0  0
    7.1962   -1.5000    0.0000 C   0  0  0  0  0  0  0  0  0  0  0  0
    6.3301   -2.0000    0.0000 C   0  0  0  0  0  0  0  0  0  0  0  0
    8.0622   -2.0000    0.0000 C   0  0  0  0  0  0  0  0  0  0  0  0
  1 14  1  0  0  0  0 
  2 16  1  0  0  0  0 
  2 21  1  0  0  0  0 
  3 13  1  0  0  0  0 
  4 23  1  0  0  0  0 
  5 24  1  0  0  0  0 
  6 16  1  0  0  0  0 
  6 23  1  0  0  0  0 
  7 22  1  0  0  0  0 
  7 24  1  0  0  0  0 
  8 20  1  0  0  0  0 
  9 10  1  0  0  0  0 
  9 11  1  0  0  0  0 
  9 12  1  0  0  0  0 
 10 13  1  0  0  0  0 
 11 14  1  0  0  0  0 
 11 15  1  0  0  0  0 
 12 16  1  0  0  0  0 
 12 20  1  0  0  0  0 
 13 17  1  0  0  0  0 
 14 18  1  0  0  0  0 
 15 19  1  0  0  0  0 
 21 24  1  0  0  0  0 
 23 25  1  0  0  0  0 
 25 26  1  0  0  0  0 
 25 27  1  0  0  0  0 
M  END
> <PUBCHEM_COMPOUND_CID>
6512723

$$$$

  CDK     0202151413

 28 30  0  0  0  0  0  0  0  0999 V2000
    8.3090    0.3568    0.0000 O   0  0  0  0  0  0  0  0  0  0  0  0
    4.9367    0.0778    0.0000 O   0  0  0  0  0  0  0  0  0  0  0  0
    6.7209   -2.9955    0.0000 O   0  0  0  0  0  0  0  0  0  0  0  0
    6.5000    3.1739    0.0000 O   0  0  0  0  0  0  0  0  0  0  0  0
    6.1963   -1.1747    0.0000 N   0  0  0  0  0  0  0  0  0  0  0  0
    7.9431   -2.6383    0.0000 N   0  0  0  0  0  0  0  0  0  0  0  0
    5.5000    2.1739    0.0000 N   0  0  0  0  0  0  0  0  0  0  0  0
    7.5000   -0.2310    0.0000 C   0  0  1  0  0  0  0  0  0  0  0  0
    6.6910    0.3568    0.0000 C   0  0  1  0  0  0  0  0  0  0  0  0
    7.1904   -1.1756    0.0000 C   0  0  1  0  0  0  0  0  0  0  0  0
    7.0000    1.3079    0.0000 C   0  0  2  0  0  0  0  0  0  0  0  0
    8.0000    1.3079    0.0000 C   0  0  1  0  0  0  0  0  0  0  0  0
    5.8883   -0.2296    0.0000 C   0  0  0  0  0  0  0  0  0  0  0  0
    8.4603   -0.3997    0.0000 C   0  0  0  0  0  0  0  0  0  0  0  0
    7.2527   -2.1486    0.0000 C   0  0  0  0  0  0  0  0  0  0  0  0
    5.3673   -1.7340    0.0000 C   0  0  1  0  0  0  0  0  0  0  0  0
    6.5000    2.1739    0.0000 C   0  0  0  0  0  0  0  0  0  0  0  0
    7.9282   -3.6382    0.0000 C   0  0  0  0  0  0  0  0  0  0  0  0
    8.7716   -2.2957    0.0000 C   0  0  0  0  0  0  0  0  0  0  0  0
    9.0371   -1.3247    0.0000 C   0  0  0  0  0  0  0  0  0  0  0  0
    8.5000    2.1739    0.0000 C   0  0  0  0  0  0  0  0  0  0  0  0
    5.4371   -2.7315    0.0000 C   0  0  0  0  0  0  0  0  0  0  0  0
    4.4684   -1.2955    0.0000 C   0  0  0  0  0  0  0  0  0  0  0  0
    8.0000    3.0399    0.0000 C   0  0  0  0  0  0  0  0  0  0  0  0
    5.0000    3.0399    0.0000 C   0  0  1  0  0  0  0  0  0  0  0  0
    8.5000    3.9059    0.0000 C   0  0  0  0  0  0  0  0  0  0  0  0
    5.5000    3.9059    0.0000 C   0  0  0  0  0  0  0  0  0  0  0  0
    4.0000    3.0399    0.0000 C   0  0  0  0  0  0  0  0  0  0  0  0
  8  1  1  6  0  0  0 
  1 12  1  0  0  0  0 
  2 13  1  0  0  0  0 
  3 15  1  0  0  0  0 
  4 17  1  0  0  0  0 
  5 10  1  0  0  0  0 
  5 13  1  0  0  0  0 
  5 16  1  0  0  0  0 
  6 15  1  0  0  0  0 
  6 18  1  0  0  0  0 
  6 19  1  0  0  0  0 
  7 17  1  0  0  0  0 
  7 25  1  0  0  0  0 
  8  9  1  0  0  0  0 
  8 10  1  0  0  0  0 
  8 14  1  0  0  0  0 
  9 11  1  0  0  0  0 
  9 13  1  0  0  0  0 
 10 15  1  0  0  0  0 
 11 12  1  0  0  0  0 
 11 17  1  0  0  0  0 
 12 21  1  0  0  0  0 
 14 20  1  0  0  0  0 
 16 22  1  1  0  0  0 
 16 23  1  0  0  0  0 
 19 20  1  0  0  0  0 
 21 24  1  0  0  0  0 
 24 26  1  0  0  0  0 
 25 27  1  0  0  0  0 
 25 28  1  6  0  0  0 
M  END
> <PUBCHEM_COMPOUND_CID>
23870737

$$$$
