
  CDK     0202151410

  9  8  0  0  0  0  0  0  0  0999 V2000
    4.5981   -0.5202    0.0000 C   0  0  0  0  0  0  0  0  0  0  0  0
    3.7320   -1.0202    0.0000 C   0  0  0  0  0  0  0  0  0  0  0  0
    5.4641   -1.0202    0.0000 C   0  0  0  0  0  0  0  0  0  0  0  0
    6.3301   -0.5202    0.0000 C   0  0  0  0  0  0  0  0  0  0  0  0
    6.3301    0.4798    0.0000 C   0  0  0  0  0  0  0  0  0  0  0  0
    5.4641   -2.0202    0.0000 C   0  0  0  0  0  0  0  0  0  0  0  0
    7.1962   -1.0202    0.0000 C   0  0  0  0  0  0  0  0  0  0  0  0
    5.5211    1.0676    0.0000 C   0  0  0  0  0  0  0  0  0  0  0  0
    7.1391    1.0676    0.0000 C   0  0  0  0  0  0  0  0  0  0  0  0
  1  2  1  0  0  0  0 
  1  3  1  0  0  0  0 
  3  4  1  0  0  0  0 
  3  6  1  0  0  0  0 
  4  5  1  0  0  0  0 
  4  7  1  0  0  0  0 
  5  8  1  0  0  0  0 
  5  9  1  0  0  0  0 
M  END
> <PUBCHEM_COMPOUND_CID>
70037035

$$$$

  CDK     0202151410

 10 10  0  0  0  0  0  0  0  0999 V2000
    2.8660   -1.7500    0.0000 S   0  0  0  0  0  0  0  0  0  0  0  0
    4.5981    1.2500    0.0000 N   0  0  0  0  0  0  0  0  0  0  0  0
    5.4641   -0.2500    0.0000 N   0  0  0  0  0  0  0  0  0  0  0  0
    4.5981   -1.7500    0.0000 N   0  0  0  0  0  0  0  0  0  0  0  0
    5.4641    1.7500    0.0000 C   0  0  0  0  0  0  0  0  0  0  0  0
    3.7320    1.7500    0.0000 C   0  0  0  0  0  0  0  0  0  0  0  0
    4.5981    0.2500    0.0000 C   0  0  0  0  0  0  0  0  0  0  0  0
    3.7320   -0.2500    0.0000 C   0  0  0  0  0  0  0  0  0  0  0  0
    3.7320   -1.2500    0.0000 C   0  0  0  0  0  0  0  0  0  0  0  0
    5.4641   -1.2500    0.0000 C   0  0  0  0  0  0  0  0  0  0  0  0
  1  9  1  0  0  0  0 
  2  5  1  0  0  0  0 
  2  6  1  0  0  0  0 
  2  7  1  0  0  0  0 
  3  7  1  0  0  0  0 
  3 10  1  0  0  0  0 
  4  9  1  0  0  0  0 
  4 10  1  0  0  0  0 
  7  8  1  0  0  0  0 
  8  9  1  0  0  0  0 
M  END
> <PUBCHEM_COMPOUND_CID>
44071530

$$$$
