
  CDK     0202151410

 10 10  0  0  0  0  0  0  0  0999 V2000
    5.1350   -1.9400    0.0000 N   0  0  0  0  0  0  0  0  0  0  0  0
    6.8671    1.0600    0.0000 N   0  0  0  0  0  0  0  0  0  0  0  0
    8.5991   -1.9400    0.0000 N   0  0  0  0  0  0  0  0  0  0  0  0
    6.8671   -1.9400    0.0000 N   0  0  0  0  0  0  0  0  0  0  0  0
    6.0010   -0.4400    0.0000 N   0  0  0  0  0  0  0  0  0  0  0  0
    7.7331   -0.4400    0.0000 N   0  0  0  0  0  0  0  0  0  0  0  0
    4.2690   -1.4400    0.0000 C   0  0  0  0  0  0  0  0  0  0  0  0
    6.0010   -1.4400    0.0000 C   0  0  0  0  0  0  0  0  0  0  0  0
    6.8671    0.0600    0.0000 C   0  0  0  0  0  0  0  0  0  0  0  0
    7.7331   -1.4400    0.0000 C   0  0  0  0  0  0  0  0  0  0  0  0
  1  7  1  0  0  0  0 
  1  8  1  0  0  0  0 
  2  9  1  0  0  0  0 
  3 10  1  0  0  0  0 
  4  8  1  0  0  0  0 
  4 10  1  0  0  0  0 
  5  8  1  0  0  0  0 
  5  9  1  0  0  0  0 
  6  9  1  0  0  0  0 
  6 10  1  0  0  0  0 
M  END
> <PUBCHEM_COMPOUND_CID>
3138159

$$$$

  CDK     0202151410

 10  9  0  0  0  0  0  0  0  0999 V2000
    5.4641    0.9400    0.0000 C   0  0  0  0  0  0  0  0  0  0  0  0
    6.3301    1.4400    0.0000 C   0  0  0  0  0  0  0  0  0  0  0  0
    4.5981    1.4400    0.0000 C   0  0  0  0  0  0  0  0  0  0  0  0
    3.7320    0.9400    0.0000 C   0  0  0  0  0  0  0  0  0  0  0  0
    3.7320   -0.0600    0.0000 C   0  0  0  0  0  0  0  0  0  0  0  0
    4.5981    2.4400    0.0000 C   0  0  0  0  0  0  0  0  0  0  0  0
    2.8660   -1.5600    0.0000 C   0  0  0  0  0  0  0  0  0  0  0  0
    2.8660   -0.5600    0.0000 C   0  0  0  0  0  0  0  0  0  0  0  0
    3.7320   -2.0600    0.0000 C   0  0  0  0  0  0  0  0  0  0  0  0
    2.0000   -2.0600    0.0000 C   0  0  0  0  0  0  0  0  0  0  0  0
  1  2  1  0  0  0  0 
  1  3  1  0  0  0  0 
  3  4  1  3  0  0  0 
  3  6  1  0  0  0  0 
  4  5  1  0  0  0  0 
  5  8  1  3  0  0  0 
  7  8  1  0  0  0  0 
  7  9  1  0  0  0  0 
  7 10  1  0  0  0  0 
M  END
> <PUBCHEM_COMPOUND_CID>
57153718

$$$$
