
  CDK     1227140956

  4  4  0  0  0  0  0  0  0  0999 V2000
    2.0000   -1.3660    0.0000 O   0  0  0  0  0  0  0  0  0  0  0  0
    3.0000   -0.3660    0.0000 C   0  0  0  0  0  0  0  0  0  0  0  0
    2.0000   -0.3660    0.0000 C   0  0  0  0  0  0  0  0  0  0  0  0
    3.0000   -1.3660    0.0000 C   0  0  0  0  0  0  0  0  0  0  0  0
  1  3  1  0  0  0  0 
  1  4  1  0  0  0  0 
  2  3  1  0  0  0  0 
  2  4  1  0  0  0  0 
M  END
> <PUBCHEM_COMPOUND_CID>
11217487

$$$$
