19034184
  CDK     0104150955

 55 56  0  0  0  0  0  0  0  0999 V2000
    9.7942   -3.6550    0.0000 O   0  0  0  0  0  0  0  0  0  0  0  0
    6.3301    2.3450    0.0000 O   0  0  0  0  0  0  0  0  0  0  0  0
    8.0622   -3.6550    0.0000 O   0  0  0  0  0  0  0  0  0  0  0  0
    2.8660    5.3450    0.0000 O   0  0  0  0  0  0  0  0  0  0  0  0
    2.0000    3.8450    0.0000 O   0  0  0  0  0  0  0  0  0  0  0  0
    8.9282   -2.1550    0.0000 N   0  0  0  0  0  0  0  0  0  0  0  0
    8.0622   -0.6550    0.0000 C   0  0  3  0  0  0  0  0  0  0  0  0
    8.9282   -0.1550    0.0000 C   0  0  0  0  0  0  0  0  0  0  0  0
    8.0622   -1.6550    0.0000 C   0  0  0  0  0  0  0  0  0  0  0  0
    9.7942   -0.6550    0.0000 C   0  0  0  0  0  0  0  0  0  0  0  0
    7.1962   -0.1550    0.0000 C   0  0  0  0  0  0  0  0  0  0  0  0
    9.7942   -1.6550    0.0000 C   0  0  0  0  0  0  0  0  0  0  0  0
    7.1962    0.8450    0.0000 C   0  0  0  0  0  0  0  0  0  0  0  0
    8.9282   -3.1550    0.0000 C   0  0  0  0  0  0  0  0  0  0  0  0
    6.3301    1.3450    0.0000 C   0  0  0  0  0  0  0  0  0  0  0  0
    9.7942   -4.6550    0.0000 C   0  0  0  0  0  0  0  0  0  0  0  0
    9.7942   -5.6550    0.0000 C   0  0  0  0  0  0  0  0  0  0  0  0
   10.7942   -4.6550    0.0000 C   0  0  0  0  0  0  0  0  0  0  0  0
    8.7942   -4.6550    0.0000 C   0  0  0  0  0  0  0  0  0  0  0  0
    5.4641    2.8450    0.0000 C   0  0  0  0  0  0  0  0  0  0  0  0
    5.4641    3.8450    0.0000 C   0  0  0  0  0  0  0  0  0  0  0  0
    4.5981    2.3450    0.0000 C   0  0  0  0  0  0  0  0  0  0  0  0
    4.5981    4.3450    0.0000 C   0  0  0  0  0  0  0  0  0  0  0  0
    3.7320    2.8450    0.0000 C   0  0  0  0  0  0  0  0  0  0  0  0
    3.7320    3.8450    0.0000 C   0  0  0  0  0  0  0  0  0  0  0  0
    2.8660    4.3450    0.0000 C   0  0  0  0  0  0  0  0  0  0  0  0
    8.0622   -0.0350    0.0000 H   0  0  0  0  0  0  0  0  0  0  0  0
    9.3267    0.3199    0.0000 H   0  0  0  0  0  0  0  0  0  0  0  0
    8.5297    0.3199    0.0000 H   0  0  0  0  0  0  0  0  0  0  0  0
    7.4516   -1.5473    0.0000 H   0  0  0  0  0  0  0  0  0  0  0  0
    7.8501   -2.2376    0.0000 H   0  0  0  0  0  0  0  0  0  0  0  0
   10.4048   -0.7627    0.0000 H   0  0  0  0  0  0  0  0  0  0  0  0
   10.0063   -0.0724    0.0000 H   0  0  0  0  0  0  0  0  0  0  0  0
    6.5856   -0.0473    0.0000 H   0  0  0  0  0  0  0  0  0  0  0  0
    6.9841   -0.7376    0.0000 H   0  0  0  0  0  0  0  0  0  0  0  0
   10.0063   -2.2376    0.0000 H   0  0  0  0  0  0  0  0  0  0  0  0
   10.4048   -1.5473    0.0000 H   0  0  0  0  0  0  0  0  0  0  0  0
    7.8067    0.7373    0.0000 H   0  0  0  0  0  0  0  0  0  0  0  0
    7.4082    1.4276    0.0000 H   0  0  0  0  0  0  0  0  0  0  0  0
    5.7196    1.4527    0.0000 H   0  0  0  0  0  0  0  0  0  0  0  0
    6.1181    0.7624    0.0000 H   0  0  0  0  0  0  0  0  0  0  0  0
    9.1742   -5.6550    0.0000 H   0  0  0  0  0  0  0  0  0  0  0  0
    9.7942   -6.2750    0.0000 H   0  0  0  0  0  0  0  0  0  0  0  0
   10.4142   -5.6550    0.0000 H   0  0  0  0  0  0  0  0  0  0  0  0
   10.7942   -5.2750    0.0000 H   0  0  0  0  0  0  0  0  0  0  0  0
   11.4142   -4.6550    0.0000 H   0  0  0  0  0  0  0  0  0  0  0  0
   10.7942   -4.0350    0.0000 H   0  0  0  0  0  0  0  0  0  0  0  0
    8.7942   -4.0350    0.0000 H   0  0  0  0  0  0  0  0  0  0  0  0
    8.1742   -4.6550    0.0000 H   0  0  0  0  0  0  0  0  0  0  0  0
    8.7942   -5.2750    0.0000 H   0  0  0  0  0  0  0  0  0  0  0  0
    6.0010    4.1550    0.0000 H   0  0  0  0  0  0  0  0  0  0  0  0
    4.5981    1.7250    0.0000 H   0  0  0  0  0  0  0  0  0  0  0  0
    4.5981    4.9650    0.0000 H   0  0  0  0  0  0  0  0  0  0  0  0
    3.1951    2.5350    0.0000 H   0  0  0  0  0  0  0  0  0  0  0  0
    2.3291    5.6550    0.0000 H   0  0  0  0  0  0  0  0  0  0  0  0
  1 14  1  0  0  0  0 
  1 16  1  0  0  0  0 
  2 15  1  0  0  0  0 
  2 20  1  0  0  0  0 
  3 14  2  0  0  0  0 
  4 26  1  0  0  0  0 
  4 55  1  0  0  0  0 
  5 26  2  0  0  0  0 
  6  9  1  0  0  0  0 
  6 12  1  0  0  0  0 
  6 14  1  0  0  0  0 
  7  8  1  0  0  0  0 
  7  9  1  0  0  0  0 
  7 11  1  0  0  0  0 
  7 27  1  0  0  0  0 
  8 10  1  0  0  0  0 
  8 28  1  0  0  0  0 
  8 29  1  0  0  0  0 
  9 30  1  0  0  0  0 
  9 31  1  0  0  0  0 
 10 12  1  0  0  0  0 
 10 32  1  0  0  0  0 
 10 33  1  0  0  0  0 
 11 13  1  0  0  0  0 
 11 34  1  0  0  0  0 
 11 35  1  0  0  0  0 
 12 36  1  0  0  0  0 
 12 37  1  0  0  0  0 
 13 15  1  0  0  0  0 
 13 38  1  0  0  0  0 
 13 39  1  0  0  0  0 
 15 40  1  0  0  0  0 
 15 41  1  0  0  0  0 
 16 17  1  0  0  0  0 
 16 18  1  0  0  0  0 
 16 19  1  0  0  0  0 
 17 42  1  0  0  0  0 
 17 43  1  0  0  0  0 
 17 44  1  0  0  0  0 
 18 45  1  0  0  0  0 
 18 46  1  0  0  0  0 
 18 47  1  0  0  0  0 
 19 48  1  0  0  0  0 
 19 49  1  0  0  0  0 
 19 50  1  0  0  0  0 
 20 21  2  0  0  0  0 
 20 22  1  0  0  0  0 
 21 23  1  0  0  0  0 
 21 51  1  0  0  0  0 
 22 24  2  0  0  0  0 
 22 52  1  0  0  0  0 
 23 25  2  0  0  0  0 
 23 53  1  0  0  0  0 
 24 25  1  0  0  0  0 
 24 54  1  0  0  0  0 
 25 26  1  0  0  0  0 
M  END
> <cdk:Title>
19034184

> <cdk:Remark>
null

> <PUBCHEM_COMPOUND_CID>
19034184

> <PUBCHEM_COMPOUND_CANONICALIZED>
1

> <PUBCHEM_CACTVS_COMPLEXITY>
465

> <PUBCHEM_CACTVS_HBOND_ACCEPTOR>
5

> <PUBCHEM_CACTVS_HBOND_DONOR>
1

> <PUBCHEM_CACTVS_ROTATABLE_BOND>
8

> <PUBCHEM_CACTVS_SUBSKEYS>
AAADceB6OAAAAAAAAAAAAAAAAAAAAAAAAAA8QAAAAAAAAAABAAAAHgAACAAADUThmAYyDoMABgCIAiDSGAACCAAkIAAIiAEOCMgMJjKEtRqOeSCkxhGIuYeY/C7OIAAAAAAAAABAAAAAAAAAAAAAAAAAAA==

> <PUBCHEM_IUPAC_OPENEYE_NAME>
4-[3-(1-tert-butoxycarbonyl-3-piperidyl)propoxy]benzoic acid

> <PUBCHEM_IUPAC_CAS_NAME>
4-[3-[1-[(2-methylpropan-2-yl)oxy-oxomethyl]-3-piperidinyl]propoxy]benzoic acid

> <PUBCHEM_IUPAC_NAME>
4-[3-[1-[(2-methylpropan-2-yl)oxycarbonyl]piperidin-3-yl]propoxy]benzoic acid

> <PUBCHEM_IUPAC_SYSTEMATIC_NAME>
4-[3-[1-[(2-methylpropan-2-yl)oxycarbonyl]piperidin-3-yl]propoxy]benzoic acid

> <PUBCHEM_IUPAC_TRADITIONAL_NAME>
4-[3-(1-tert-butoxycarbonyl-3-piperidyl)propoxy]benzoic acid

> <PUBCHEM_IUPAC_INCHI>
InChI=1S/C20H29NO5/c1-20(2,3)26-19(24)21-12-4-6-15(14-21)7-5-13-25-17-10-8-16(9-11-17)18(22)23/h8-11,15H,4-7,12-14H2,1-3H3,(H,22,23)

> <PUBCHEM_IUPAC_INCHIKEY>
BYZAUYVJMPSGQH-UHFFFAOYSA-N

> <PUBCHEM_XLOGP3_AA>
3.8

> <PUBCHEM_EXACT_MASS>
363.204573

> <PUBCHEM_MOLECULAR_FORMULA>
C20H29NO5

> <PUBCHEM_MOLECULAR_WEIGHT>
363.44796

> <PUBCHEM_OPENEYE_CAN_SMILES>
CC(C)(C)OC(=O)N1CCCC(C1)CCCOC2=CC=C(C=C2)C(=O)O

> <PUBCHEM_OPENEYE_ISO_SMILES>
CC(C)(C)OC(=O)N1CCCC(C1)CCCOC2=CC=C(C=C2)C(=O)O

> <PUBCHEM_CACTVS_TPSA>
76.1

> <PUBCHEM_MONOISOTOPIC_WEIGHT>
363.204573

> <PUBCHEM_TOTAL_CHARGE>
0

> <PUBCHEM_HEAVY_ATOM_COUNT>
26

> <PUBCHEM_ATOM_DEF_STEREO_COUNT>
0

> <PUBCHEM_ATOM_UDEF_STEREO_COUNT>
1

> <PUBCHEM_BOND_DEF_STEREO_COUNT>
0

> <PUBCHEM_BOND_UDEF_STEREO_COUNT>
0

> <PUBCHEM_ISOTOPIC_ATOM_COUNT>
0

> <PUBCHEM_COMPONENT_COUNT>
1

> <PUBCHEM_CACTVS_TAUTO_COUNT>
1

> <PUBCHEM_COORDINATE_TYPE>
1

> <PUBCHEM_BONDANNOTATIONS>
20  21  8

$$$$
18119225
  CDK     0104150955

 53 54  0  0  0  0  0  0  0  0999 V2000
   11.5263    0.0000    0.0000 O   0  0  0  0  0  0  0  0  0  0  0  0
    6.3301    0.0000    0.0000 O   0  0  0  0  0  0  0  0  0  0  0  0
    9.7942    1.0000    0.0000 O   0  0  0  0  0  0  0  0  0  0  0  0
    2.8660   -2.0000    0.0000 O   0  0  0  0  0  0  0  0  0  0  0  0
    8.9282   -0.5000    0.0000 N   0  0  0  0  0  0  0  0  0  0  0  0
   13.2583    1.0000    0.0000 C   0  0  0  0  0  0  0  0  0  0  0  0
   13.2583    0.0000    0.0000 C   0  0  0  0  0  0  0  0  0  0  0  0
   13.2583    2.0000    0.0000 C   0  0  0  0  0  0  0  0  0  0  0  0
   14.2583    1.0000    0.0000 C   0  0  0  0  0  0  0  0  0  0  0  0
   12.2583    1.0000    0.0000 C   0  0  0  0  0  0  0  0  0  0  0  0
   12.3923   -0.5000    0.0000 C   0  0  0  0  0  0  0  0  0  0  0  0
   14.1244   -0.5000    0.0000 C   0  0  0  0  0  0  0  0  0  0  0  0
   12.3923   -1.5000    0.0000 C   0  0  0  0  0  0  0  0  0  0  0  0
   14.1244   -1.5000    0.0000 C   0  0  0  0  0  0  0  0  0  0  0  0
   13.2583   -2.0000    0.0000 C   0  0  0  0  0  0  0  0  0  0  0  0
   10.6603   -0.5000    0.0000 C   0  0  0  0  0  0  0  0  0  0  0  0
    9.7942    0.0000    0.0000 C   0  0  0  0  0  0  0  0  0  0  0  0
    8.0622    0.0000    0.0000 C   0  0  0  0  0  0  0  0  0  0  0  0
    7.1962   -0.5000    0.0000 C   0  0  0  0  0  0  0  0  0  0  0  0
    5.4641   -0.5000    0.0000 C   0  0  0  0  0  0  0  0  0  0  0  0
    4.5981    0.0000    0.0000 C   0  0  0  0  0  0  0  0  0  0  0  0
    5.4641   -1.5000    0.0000 C   0  0  0  0  0  0  0  0  0  0  0  0
    3.7320   -1.5000    0.0000 C   0  0  0  0  0  0  0  0  0  0  0  0
    3.7320   -0.5000    0.0000 C   0  0  0  0  0  0  0  0  0  0  0  0
    4.5981   -2.0000    0.0000 C   0  0  0  0  0  0  0  0  0  0  0  0
    2.0000   -1.5000    0.0000 C   0  0  0  0  0  0  0  0  0  0  0  0
   13.8783    2.0000    0.0000 H   0  0  0  0  0  0  0  0  0  0  0  0
   12.2583    1.6200    0.0000 H   0  0  0  0  0  0  0  0  0  0  0  0
   11.6383    1.0000    0.0000 H   0  0  0  0  0  0  0  0  0  0  0  0
   12.2583    0.3800    0.0000 H   0  0  0  0  0  0  0  0  0  0  0  0
   14.2583    0.3800    0.0000 H   0  0  0  0  0  0  0  0  0  0  0  0
   14.8783    1.0000    0.0000 H   0  0  0  0  0  0  0  0  0  0  0  0
   14.2583    1.6200    0.0000 H   0  0  0  0  0  0  0  0  0  0  0  0
   13.2583    2.6200    0.0000 H   0  0  0  0  0  0  0  0  0  0  0  0
   12.6383    2.0000    0.0000 H   0  0  0  0  0  0  0  0  0  0  0  0
   14.6613   -0.1900    0.0000 H   0  0  0  0  0  0  0  0  0  0  0  0
   11.8554   -1.8100    0.0000 H   0  0  0  0  0  0  0  0  0  0  0  0
   14.6613   -1.8100    0.0000 H   0  0  0  0  0  0  0  0  0  0  0  0
   13.2583   -2.6200    0.0000 H   0  0  0  0  0  0  0  0  0  0  0  0
   10.2617   -0.9749    0.0000 H   0  0  0  0  0  0  0  0  0  0  0  0
   11.0588   -0.9749    0.0000 H   0  0  0  0  0  0  0  0  0  0  0  0
    8.4607    0.4749    0.0000 H   0  0  0  0  0  0  0  0  0  0  0  0
    7.6636    0.4749    0.0000 H   0  0  0  0  0  0  0  0  0  0  0  0
    8.9282   -1.1200    0.0000 H   0  0  0  0  0  0  0  0  0  0  0  0
    6.7976   -0.9749    0.0000 H   0  0  0  0  0  0  0  0  0  0  0  0
    7.5947   -0.9749    0.0000 H   0  0  0  0  0  0  0  0  0  0  0  0
    4.5981    0.6200    0.0000 H   0  0  0  0  0  0  0  0  0  0  0  0
    6.0010   -1.8100    0.0000 H   0  0  0  0  0  0  0  0  0  0  0  0
    3.1951   -0.1900    0.0000 H   0  0  0  0  0  0  0  0  0  0  0  0
    4.5981   -2.6200    0.0000 H   0  0  0  0  0  0  0  0  0  0  0  0
    2.3100   -0.9631    0.0000 H   0  0  0  0  0  0  0  0  0  0  0  0
    1.4631   -1.1900    0.0000 H   0  0  0  0  0  0  0  0  0  0  0  0
    1.6900   -2.0369    0.0000 H   0  0  0  0  0  0  0  0  0  0  0  0
  1 11  1  0  0  0  0 
  1 16  1  0  0  0  0 
  2 19  1  0  0  0  0 
  2 20  1  0  0  0  0 
  3 17  2  0  0  0  0 
  4 23  1  0  0  0  0 
  4 26  1  0  0  0  0 
  5 17  1  0  0  0  0 
  5 18  1  0  0  0  0 
  5 44  1  0  0  0  0 
  6  7  1  0  0  0  0 
  6  8  1  0  0  0  0 
  6  9  1  0  0  0  0 
  6 10  1  0  0  0  0 
  7 11  1  0  0  0  0 
  7 12  2  0  0  0  0 
  8 27  1  0  0  0  0 
  8 34  1  0  0  0  0 
  8 35  1  0  0  0  0 
  9 31  1  0  0  0  0 
  9 32  1  0  0  0  0 
  9 33  1  0  0  0  0 
 10 28  1  0  0  0  0 
 10 29  1  0  0  0  0 
 10 30  1  0  0  0  0 
 11 13  2  0  0  0  0 
 12 14  1  0  0  0  0 
 12 36  1  0  0  0  0 
 13 15  1  0  0  0  0 
 13 37  1  0  0  0  0 
 14 15  2  0  0  0  0 
 14 38  1  0  0  0  0 
 15 39  1  0  0  0  0 
 16 17  1  0  0  0  0 
 16 40  1  0  0  0  0 
 16 41  1  0  0  0  0 
 18 19  1  0  0  0  0 
 18 42  1  0  0  0  0 
 18 43  1  0  0  0  0 
 19 45  1  0  0  0  0 
 19 46  1  0  0  0  0 
 20 21  2  0  0  0  0 
 20 22  1  0  0  0  0 
 21 24  1  0  0  0  0 
 21 47  1  0  0  0  0 
 22 25  2  0  0  0  0 
 22 48  1  0  0  0  0 
 23 24  2  0  0  0  0 
 23 25  1  0  0  0  0 
 24 49  1  0  0  0  0 
 25 50  1  0  0  0  0 
 26 51  1  0  0  0  0 
 26 52  1  0  0  0  0 
 26 53  1  0  0  0  0 
M  END
> <cdk:Title>
18119225

> <cdk:Remark>
null

> <PUBCHEM_COMPOUND_CID>
18119225

> <PUBCHEM_COMPOUND_CANONICALIZED>
1

> <PUBCHEM_CACTVS_COMPLEXITY>
413

> <PUBCHEM_CACTVS_HBOND_ACCEPTOR>
4

> <PUBCHEM_CACTVS_HBOND_DONOR>
1

> <PUBCHEM_CACTVS_ROTATABLE_BOND>
9

> <PUBCHEM_CACTVS_SUBSKEYS>
AAADceB6OAAAAAAAAAAAAAAAAAAAAAAAAAAwYAAAAAAAAAABQAAAHgAQAAAADgThmAYyBoLABACIAiFSEAICCAAgIAAIiIBOCIgOJiKEMR6DOCCk1hGYqAfAwOAPgQAAAAAIAAACAAAAABAAAAAAAAAAAA==

> <PUBCHEM_IUPAC_OPENEYE_NAME>
2-(2-tert-butylphenoxy)-N-[2-(4-methoxyphenoxy)ethyl]acetamide

> <PUBCHEM_IUPAC_CAS_NAME>
2-(2-tert-butylphenoxy)-N-[2-(4-methoxyphenoxy)ethyl]acetamide

> <PUBCHEM_IUPAC_NAME>
2-(2-tert-butylphenoxy)-N-[2-(4-methoxyphenoxy)ethyl]acetamide

> <PUBCHEM_IUPAC_SYSTEMATIC_NAME>
2-(2-tert-butylphenoxy)-N-[2-(4-methoxyphenoxy)ethyl]ethanamide

> <PUBCHEM_IUPAC_TRADITIONAL_NAME>
2-(2-tert-butylphenoxy)-N-[2-(4-methoxyphenoxy)ethyl]acetamide

> <PUBCHEM_IUPAC_INCHI>
InChI=1S/C21H27NO4/c1-21(2,3)18-7-5-6-8-19(18)26-15-20(23)22-13-14-25-17-11-9-16(24-4)10-12-17/h5-12H,13-15H2,1-4H3,(H,22,23)

> <PUBCHEM_IUPAC_INCHIKEY>
CSCSVDRGQXYAMN-UHFFFAOYSA-N

> <PUBCHEM_XLOGP3>
4.7

> <PUBCHEM_EXACT_MASS>
357.194008

> <PUBCHEM_MOLECULAR_FORMULA>
C21H27NO4

> <PUBCHEM_MOLECULAR_WEIGHT>
357.44338

> <PUBCHEM_OPENEYE_CAN_SMILES>
CC(C)(C)C1=CC=CC=C1OCC(=O)NCCOC2=CC=C(C=C2)OC

> <PUBCHEM_OPENEYE_ISO_SMILES>
CC(C)(C)C1=CC=CC=C1OCC(=O)NCCOC2=CC=C(C=C2)OC

> <PUBCHEM_CACTVS_TPSA>
56.8

> <PUBCHEM_MONOISOTOPIC_WEIGHT>
357.194008

> <PUBCHEM_TOTAL_CHARGE>
0

> <PUBCHEM_HEAVY_ATOM_COUNT>
26

> <PUBCHEM_ATOM_DEF_STEREO_COUNT>
0

> <PUBCHEM_ATOM_UDEF_STEREO_COUNT>
0

> <PUBCHEM_BOND_DEF_STEREO_COUNT>
0

> <PUBCHEM_BOND_UDEF_STEREO_COUNT>
0

> <PUBCHEM_ISOTOPIC_ATOM_COUNT>
0

> <PUBCHEM_COMPONENT_COUNT>
1

> <PUBCHEM_CACTVS_TAUTO_COUNT>
2

> <PUBCHEM_COORDINATE_TYPE>
1

> <PUBCHEM_BONDANNOTATIONS>
11  13  8

$$$$
