
  CDK     0202151410

 11 10  0  0  0  0  0  0  0  0999 V2000
    3.7320   -2.6900    0.0000 O   0  0  0  0  0  0  0  0  0  0  0  0
    2.8660    1.8100    0.0000 N   0  0  0  0  0  0  0  0  0  0  0  0
    3.7320   -0.6900    0.0000 N   0  0  0  0  0  0  0  0  0  0  0  0
    5.4641   -0.6900    0.0000 N   0  0  0  0  0  0  0  0  0  0  0  0
    5.4641   -2.6900    0.0000 N   0  0  0  0  0  0  0  0  0  0  0  0
    6.3301   -1.1900    0.0000 N   0  0  0  0  0  0  0  0  0  0  0  0
    2.8660    0.8100    0.0000 C   0  0  0  0  0  0  0  0  0  0  0  0
    3.7320    0.3100    0.0000 C   0  0  3  0  0  0  0  0  0  0  0  0
    4.5981    0.8100    0.0000 C   0  0  0  0  0  0  0  0  0  0  0  0
    4.5981   -1.1900    0.0000 C   0  0  0  0  0  0  0  0  0  0  0  0
    4.5981   -2.1900    0.0000 C   0  0  0  0  0  0  0  0  0  0  0  0
  1 11  1  0  0  0  0 
  2  7  1  0  0  0  0 
  3  8  1  0  0  0  0 
  3 10  1  0  0  0  0 
  4  6  1  0  0  0  0 
  4 10  1  0  0  0  0 
  5 11  1  0  0  0  0 
  7  8  1  0  0  0  0 
  8  9  1  0  0  0  0 
 10 11  1  0  0  0  0 
M  END
> <PUBCHEM_COMPOUND_CID>
61808089

$$$$
