32951440
  CDK     1025140859

 45 48  0  0  0  0  0  0  0  0999 V2000
    3.0000    3.5352    0.0000 S   0  0  0  0  0  0  0  0  0  0  0  0
    2.5000   -2.0036    0.0000 S   0  0  0  0  0  0  0  0  0  0  0  0
    4.0000    3.5352    0.0000 O   0  0  0  0  0  0  0  0  0  0  0  0
    2.0000    3.5352    0.0000 O   0  0  0  0  0  0  0  0  0  0  0  0
    3.9598   -5.4863    0.0000 O   0  0  0  0  0  0  0  0  0  0  0  0
    3.0000    4.5352    0.0000 N   0  0  0  0  0  0  0  0  0  0  0  0
    3.8090   -1.0526    0.0000 N   0  0  0  0  0  0  0  0  0  0  0  0
    4.0878   -2.8126    0.0000 N   0  0  0  0  0  0  0  0  0  0  0  0
    3.8090    5.1230    0.0000 C   0  0  0  0  0  0  0  0  0  0  0  0
    2.1910    5.1230    0.0000 C   0  0  0  0  0  0  0  0  0  0  0  0
    3.5000    6.0740    0.0000 C   0  0  0  0  0  0  0  0  0  0  0  0
    2.5000    6.0740    0.0000 C   0  0  0  0  0  0  0  0  0  0  0  0
    3.0000    2.5352    0.0000 C   0  0  0  0  0  0  0  0  0  0  0  0
    2.1340    2.0352    0.0000 C   0  0  0  0  0  0  0  0  0  0  0  0
    3.8660    2.0352    0.0000 C   0  0  0  0  0  0  0  0  0  0  0  0
    3.0000    0.5352    0.0000 C   0  0  0  0  0  0  0  0  0  0  0  0
    2.1340    1.0352    0.0000 C   0  0  0  0  0  0  0  0  0  0  0  0
    3.8660    1.0352    0.0000 C   0  0  0  0  0  0  0  0  0  0  0  0
    3.0000   -0.4648    0.0000 C   0  0  0  0  0  0  0  0  0  0  0  0
    2.1910   -1.0526    0.0000 C   0  0  0  0  0  0  0  0  0  0  0  0
    3.5000   -2.0036    0.0000 C   0  0  0  0  0  0  0  0  0  0  0  0
    3.6810   -3.7262    0.0000 C   0  0  0  0  0  0  0  0  0  0  0  0
    4.2688   -4.5352    0.0000 C   0  0  0  0  0  0  0  0  0  0  0  0
    5.2688   -4.5352    0.0000 C   0  0  0  0  0  0  0  0  0  0  0  0
    5.5778   -5.4863    0.0000 C   0  0  0  0  0  0  0  0  0  0  0  0
    4.7688   -6.0740    0.0000 C   0  0  0  0  0  0  0  0  0  0  0  0
    4.1190    4.5861    0.0000 H   0  0  0  0  0  0  0  0  0  0  0  0
    4.3754    5.3752    0.0000 H   0  0  0  0  0  0  0  0  0  0  0  0
    1.6246    5.3752    0.0000 H   0  0  0  0  0  0  0  0  0  0  0  0
    1.8810    4.5861    0.0000 H   0  0  0  0  0  0  0  0  0  0  0  0
    2.5648    6.6907    0.0000 H   0  0  0  0  0  0  0  0  0  0  0  0
    1.8936    6.2030    0.0000 H   0  0  0  0  0  0  0  0  0  0  0  0
    4.1064    6.2030    0.0000 H   0  0  0  0  0  0  0  0  0  0  0  0
    3.4352    6.6907    0.0000 H   0  0  0  0  0  0  0  0  0  0  0  0
    1.5970    2.3452    0.0000 H   0  0  0  0  0  0  0  0  0  0  0  0
    4.4030    2.3452    0.0000 H   0  0  0  0  0  0  0  0  0  0  0  0
    1.5970    0.7252    0.0000 H   0  0  0  0  0  0  0  0  0  0  0  0
    4.4030    0.7252    0.0000 H   0  0  0  0  0  0  0  0  0  0  0  0
    1.6013   -0.8610    0.0000 H   0  0  0  0  0  0  0  0  0  0  0  0
    3.1670   -3.3795    0.0000 H   0  0  0  0  0  0  0  0  0  0  0  0
    3.2504   -4.1722    0.0000 H   0  0  0  0  0  0  0  0  0  0  0  0
    4.7044   -2.7478    0.0000 H   0  0  0  0  0  0  0  0  0  0  0  0
    5.6333   -4.0336    0.0000 H   0  0  0  0  0  0  0  0  0  0  0  0
    6.1675   -5.6779    0.0000 H   0  0  0  0  0  0  0  0  0  0  0  0
    4.7688   -6.6940    0.0000 H   0  0  0  0  0  0  0  0  0  0  0  0
  1  3  2  0  0  0  0 
  1  4  2  0  0  0  0 
  1  6  1  0  0  0  0 
  1 13  1  0  0  0  0 
  2 20  1  0  0  0  0 
  2 21  1  0  0  0  0 
  5 23  1  0  0  0  0 
  5 26  1  0  0  0  0 
  6  9  1  0  0  0  0 
  6 10  1  0  0  0  0 
  7 19  1  0  0  0  0 
  7 21  2  0  0  0  0 
  8 21  1  0  0  0  0 
  8 22  1  0  0  0  0 
  8 42  1  0  0  0  0 
  9 11  1  0  0  0  0 
  9 27  1  0  0  0  0 
  9 28  1  0  0  0  0 
 10 12  1  0  0  0  0 
 10 29  1  0  0  0  0 
 10 30  1  0  0  0  0 
 11 12  1  0  0  0  0 
 11 33  1  0  0  0  0 
 11 34  1  0  0  0  0 
 12 31  1  0  0  0  0 
 12 32  1  0  0  0  0 
 13 14  2  0  0  0  0 
 13 15  1  0  0  0  0 
 14 17  1  0  0  0  0 
 14 35  1  0  0  0  0 
 15 18  2  0  0  0  0 
 15 36  1  0  0  0  0 
 16 17  2  0  0  0  0 
 16 18  1  0  0  0  0 
 16 19  1  0  0  0  0 
 17 37  1  0  0  0  0 
 18 38  1  0  0  0  0 
 19 20  2  0  0  0  0 
 20 39  1  0  0  0  0 
 22 23  1  0  0  0  0 
 22 40  1  0  0  0  0 
 22 41  1  0  0  0  0 
 23 24  2  0  0  0  0 
 24 25  1  0  0  0  0 
 24 43  1  0  0  0  0 
 25 26  2  0  0  0  0 
 25 44  1  0  0  0  0 
 26 45  1  0  0  0  0 
M  END
> <cdk:Title>
32951440

> <cdk:Remark>
null

> <PUBCHEM_COMPOUND_CID>
32951440

> <PUBCHEM_COMPOUND_CANONICALIZED>
1

> <PUBCHEM_CACTVS_COMPLEXITY>
555

> <PUBCHEM_CACTVS_HBOND_ACCEPTOR>
7

> <PUBCHEM_CACTVS_HBOND_DONOR>
1

> <PUBCHEM_CACTVS_ROTATABLE_BOND>
6

> <PUBCHEM_CACTVS_SUBSKEYS>
AAADceB7MABgAAAAAAAAAAAAAAAAAWLEgAAwAAAAAAAAAAAB8AAAHgQQQAAADAzl3gaxlZLIFEqsA6xy5HDC+LllKjkJiL2+LNiOJrKkvTuHOSjswBOYqaeYkYIOEAAAAAAAAAAgAAAAAAAAAAAAAAAAAA==

> <PUBCHEM_IUPAC_OPENEYE_NAME>
N-(2-furylmethyl)-4-(4-pyrrolidin-1-ylsulfonylphenyl)thiazol-2-amine

> <PUBCHEM_IUPAC_CAS_NAME>
N-(2-furanylmethyl)-4-[4-(1-pyrrolidinylsulfonyl)phenyl]-2-thiazolamine

> <PUBCHEM_IUPAC_NAME>
N-(furan-2-ylmethyl)-4-(4-pyrrolidin-1-ylsulfonylphenyl)-1,3-thiazol-2-amine

> <PUBCHEM_IUPAC_SYSTEMATIC_NAME>
N-(furan-2-ylmethyl)-4-(4-pyrrolidin-1-ylsulfonylphenyl)-1,3-thiazol-2-amine

> <PUBCHEM_IUPAC_TRADITIONAL_NAME>
2-furfuryl-[4-(4-pyrrolidinosulfonylphenyl)thiazol-2-yl]amine

> <PUBCHEM_IUPAC_INCHI>
InChI=1S/C18H19N3O3S2/c22-26(23,21-9-1-2-10-21)16-7-5-14(6-8-16)17-13-25-18(20-17)19-12-15-4-3-11-24-15/h3-8,11,13H,1-2,9-10,12H2,(H,19,20)

> <PUBCHEM_IUPAC_INCHIKEY>
NECSSVPMKIMUSL-UHFFFAOYSA-N

> <PUBCHEM_XLOGP3_AA>
3.2

> <PUBCHEM_EXACT_MASS>
389.086783

> <PUBCHEM_MOLECULAR_FORMULA>
C18H19N3O3S2

> <PUBCHEM_MOLECULAR_WEIGHT>
389.49176

> <PUBCHEM_OPENEYE_CAN_SMILES>
C1CCN(C1)S(=O)(=O)C2=CC=C(C=C2)C3=CSC(=N3)NCC4=CC=CO4

> <PUBCHEM_OPENEYE_ISO_SMILES>
C1CCN(C1)S(=O)(=O)C2=CC=C(C=C2)C3=CSC(=N3)NCC4=CC=CO4

> <PUBCHEM_CACTVS_TPSA>
112

> <PUBCHEM_MONOISOTOPIC_WEIGHT>
389.086783

> <PUBCHEM_TOTAL_CHARGE>
0

> <PUBCHEM_HEAVY_ATOM_COUNT>
26

> <PUBCHEM_ATOM_DEF_STEREO_COUNT>
0

> <PUBCHEM_ATOM_UDEF_STEREO_COUNT>
0

> <PUBCHEM_BOND_DEF_STEREO_COUNT>
0

> <PUBCHEM_BOND_UDEF_STEREO_COUNT>
0

> <PUBCHEM_ISOTOPIC_ATOM_COUNT>
0

> <PUBCHEM_COMPONENT_COUNT>
1

> <PUBCHEM_CACTVS_TAUTO_COUNT>
2

> <PUBCHEM_COORDINATE_TYPE>
1

> <PUBCHEM_BONDANNOTATIONS>
13  14  8

$$$$
