
  CDK     0202151410

 12 11  0  0  0  0  0  0  0  0999 V2000
    4.4487    1.8988    0.0000 S   0  0  0  0  0  0  0  0  0  0  0  0
    6.1808    0.8988    0.0000 N   0  0  0  0  0  0  0  0  0  0  0  0
    3.5827    2.3988    0.0000 C   0  0  0  0  0  0  0  0  0  0  0  0
    3.4782    3.3933    0.0000 C   0  0  0  0  0  0  0  0  0  0  0  0
    2.6691    1.9920    0.0000 C   0  0  0  0  0  0  0  0  0  0  0  0
    4.4487    0.8988    0.0000 C   0  0  0  0  0  0  0  0  0  0  0  0
    5.3147    0.3988    0.0000 C   0  0  3  0  0  0  0  0  0  0  0  0
    5.3147   -0.6012    0.0000 C   0  0  0  0  0  0  0  0  0  0  0  0
    6.1808   -1.1012    0.0000 C   0  0  0  0  0  0  0  0  0  0  0  0
    4.4487   -1.1012    0.0000 C   0  0  0  0  0  0  0  0  0  0  0  0
    6.1808   -2.1012    0.0000 C   0  0  0  0  0  0  0  0  0  0  0  0
    4.4487   -2.1012    0.0000 C   0  0  0  0  0  0  0  0  0  0  0  0
  1  3  1  0  0  0  0 
  1  6  1  0  0  0  0 
  2  7  1  0  0  0  0 
  3  4  1  0  0  0  0 
  3  5  1  0  0  0  0 
  6  7  1  0  0  0  0 
  7  8  1  0  0  0  0 
  8  9  1  0  0  0  0 
  8 10  1  0  0  0  0 
  9 11  1  0  0  0  0 
 10 12  1  0  0  0  0 
M  END
> <PUBCHEM_COMPOUND_CID>
65138931

$$$$
