
  CDK     0224152114

 14 16  0  0  0  0  0  0  0  0999 V2000
    5.5000   -1.1044    0.0000 N   0  0  0  0  0  0  0  0  0  0  0  0
    7.2071   -1.8115    0.0000 C   0  0  0  0  0  0  0  0  0  0  0  0
    6.5000   -1.1044    0.0000 C   0  0  3  0  0  0  0  0  0  0  0  0
    7.9142   -1.1044    0.0000 C   0  0  3  0  0  0  0  0  0  0  0  0
    7.9142   -2.5186    0.0000 C   0  0  0  0  0  0  0  0  0  0  0  0
    6.5000   -2.5186    0.0000 C   0  0  0  0  0  0  0  0  0  0  0  0
    7.2071   -0.3973    0.0000 C   0  0  0  0  0  0  0  0  0  0  0  0
    7.2071   -3.2257    0.0000 C   0  0  0  0  0  0  0  0  0  0  0  0
    5.0000   -0.2384    0.0000 C   0  0  0  0  0  0  0  0  0  0  0  0
    5.5000    0.6276    0.0000 C   0  0  0  0  0  0  0  0  0  0  0  0
    4.0000   -0.2384    0.0000 C   0  0  0  0  0  0  0  0  0  0  0  0
    5.0000    1.4937    0.0000 C   0  0  0  0  0  0  0  0  0  0  0  0
    3.5000    0.6276    0.0000 C   0  0  0  0  0  0  0  0  0  0  0  0
    4.0000    1.4937    0.0000 C   0  0  0  0  0  0  0  0  0  0  0  0
  1  3  1  0  0  0  0 
  1  9  1  0  0  0  0 
  2  3  1  0  0  0  0 
  2  4  1  0  0  0  0 
  2  5  1  0  0  0  0 
  2  6  1  0  0  0  0 
  3  7  1  0  0  0  0 
  4  7  1  0  0  0  0 
  5  8  1  0  0  0  0 
  6  8  1  0  0  0  0 
  9 10  1  0  0  0  0 
  9 11  1  0  0  0  0 
 10 12  1  0  0  0  0 
 11 13  1  0  0  0  0 
 12 14  1  0  0  0  0 
 13 14  1  0  0  0  0 
M  END
> <PUBCHEM_COMPOUND_CID>
65295144

$$$$
