44870630
  CDK     1229141458

 45 47  0  0  0  0  0  0  0  0999 V2000
    2.0000    0.2500    0.0000 O   0  0  0  0  0  0  0  0  0  0  0  0
    3.7320    4.2500    0.0000 O   0  0  0  0  0  0  0  0  0  0  0  0
    2.0000   -4.7500    0.0000 O   0  0  0  0  0  0  0  0  0  0  0  0
    3.7320   -4.7500    0.0000 O   0  0  0  0  0  0  0  0  0  0  0  0
    3.7320    0.2500    0.0000 N   0  0  0  0  0  0  0  0  0  0  0  0
    2.8660   -4.2500    0.0000 N   0  0  0  0  0  0  0  0  0  0  0  0
    4.5981   -0.2500    0.0000 C   0  0  0  0  0  0  0  0  0  0  0  0
    3.7320    1.2500    0.0000 C   0  0  0  0  0  0  0  0  0  0  0  0
    5.4641    0.2500    0.0000 C   0  0  0  0  0  0  0  0  0  0  0  0
    2.8660   -0.2500    0.0000 C   0  0  0  0  0  0  0  0  0  0  0  0
    2.8660   -1.2500    0.0000 C   0  0  0  0  0  0  0  0  0  0  0  0
    4.5981    1.7500    0.0000 C   0  0  0  0  0  0  0  0  0  0  0  0
    2.8660    1.7500    0.0000 C   0  0  0  0  0  0  0  0  0  0  0  0
    6.3301   -0.2500    0.0000 C   0  0  0  0  0  0  0  0  0  0  0  0
    5.4641    1.2500    0.0000 C   0  0  0  0  0  0  0  0  0  0  0  0
    4.5981    2.7500    0.0000 C   0  0  0  0  0  0  0  0  0  0  0  0
    2.8660    2.7500    0.0000 C   0  0  0  0  0  0  0  0  0  0  0  0
    2.0000   -1.7500    0.0000 C   0  0  0  0  0  0  0  0  0  0  0  0
    3.7320   -1.7500    0.0000 C   0  0  0  0  0  0  0  0  0  0  0  0
    3.7320    3.2500    0.0000 C   0  0  0  0  0  0  0  0  0  0  0  0
    7.1962    0.2500    0.0000 C   0  0  0  0  0  0  0  0  0  0  0  0
    6.3301    1.7500    0.0000 C   0  0  0  0  0  0  0  0  0  0  0  0
    2.0000   -2.7500    0.0000 C   0  0  0  0  0  0  0  0  0  0  0  0
    3.7320   -2.7500    0.0000 C   0  0  0  0  0  0  0  0  0  0  0  0
    2.8660   -3.2500    0.0000 C   0  0  0  0  0  0  0  0  0  0  0  0
    7.1962    1.2500    0.0000 C   0  0  0  0  0  0  0  0  0  0  0  0
    2.8660    4.7500    0.0000 C   0  0  0  0  0  0  0  0  0  0  0  0
    4.1996   -0.7249    0.0000 H   0  0  0  0  0  0  0  0  0  0  0  0
    4.9966   -0.7249    0.0000 H   0  0  0  0  0  0  0  0  0  0  0  0
    5.1350    1.4400    0.0000 H   0  0  0  0  0  0  0  0  0  0  0  0
    2.3291    1.4400    0.0000 H   0  0  0  0  0  0  0  0  0  0  0  0
    6.3301   -0.8700    0.0000 H   0  0  0  0  0  0  0  0  0  0  0  0
    4.9272    1.5600    0.0000 H   0  0  0  0  0  0  0  0  0  0  0  0
    5.1350    3.0600    0.0000 H   0  0  0  0  0  0  0  0  0  0  0  0
    2.3291    3.0600    0.0000 H   0  0  0  0  0  0  0  0  0  0  0  0
    1.4631   -1.4400    0.0000 H   0  0  0  0  0  0  0  0  0  0  0  0
    4.2690   -1.4400    0.0000 H   0  0  0  0  0  0  0  0  0  0  0  0
    7.7331   -0.0600    0.0000 H   0  0  0  0  0  0  0  0  0  0  0  0
    6.3301    2.3700    0.0000 H   0  0  0  0  0  0  0  0  0  0  0  0
    1.4631   -3.0600    0.0000 H   0  0  0  0  0  0  0  0  0  0  0  0
    4.2690   -3.0600    0.0000 H   0  0  0  0  0  0  0  0  0  0  0  0
    7.7331    1.5600    0.0000 H   0  0  0  0  0  0  0  0  0  0  0  0
    3.1760    5.2869    0.0000 H   0  0  0  0  0  0  0  0  0  0  0  0
    2.3291    5.0600    0.0000 H   0  0  0  0  0  0  0  0  0  0  0  0
    2.5560    4.2131    0.0000 H   0  0  0  0  0  0  0  0  0  0  0  0
  1 10  2  0  0  0  0 
  2 20  1  0  0  0  0 
  2 27  1  0  0  0  0 
  3  6  1  0  0  0  0 
  4  6  2  0  0  0  0 
  5  7  1  0  0  0  0 
  5  8  1  0  0  0  0 
  5 10  1  0  0  0  0 
  6 25  1  0  0  0  0 
  7  9  1  0  0  0  0 
  7 28  1  0  0  0  0 
  7 29  1  0  0  0  0 
  8 12  2  0  0  0  0 
  8 13  1  0  0  0  0 
  9 14  2  0  0  0  0 
  9 15  1  0  0  0  0 
 10 11  1  0  0  0  0 
 11 18  2  0  0  0  0 
 11 19  1  0  0  0  0 
 12 16  1  0  0  0  0 
 12 30  1  0  0  0  0 
 13 17  2  0  0  0  0 
 13 31  1  0  0  0  0 
 14 21  1  0  0  0  0 
 14 32  1  0  0  0  0 
 15 22  2  0  0  0  0 
 15 33  1  0  0  0  0 
 16 20  2  0  0  0  0 
 16 34  1  0  0  0  0 
 17 20  1  0  0  0  0 
 17 35  1  0  0  0  0 
 18 23  1  0  0  0  0 
 18 36  1  0  0  0  0 
 19 24  2  0  0  0  0 
 19 37  1  0  0  0  0 
 21 26  2  0  0  0  0 
 21 38  1  0  0  0  0 
 22 26  1  0  0  0  0 
 22 39  1  0  0  0  0 
 23 25  2  0  0  0  0 
 23 40  1  0  0  0  0 
 24 25  1  0  0  0  0 
 24 41  1  0  0  0  0 
 26 42  1  0  0  0  0 
 27 43  1  0  0  0  0 
 27 44  1  0  0  0  0 
 27 45  1  0  0  0  0 
M  CHG  1   3  -1
M  CHG  1   6   1
M  END
> <cdk:Title>
44870630

> <cdk:Remark>
null

> <PUBCHEM_COMPOUND_CID>
44870630

> <PUBCHEM_COMPOUND_CANONICALIZED>
1

> <PUBCHEM_CACTVS_COMPLEXITY>
485

> <PUBCHEM_CACTVS_HBOND_ACCEPTOR>
4

> <PUBCHEM_CACTVS_HBOND_DONOR>
0

> <PUBCHEM_CACTVS_ROTATABLE_BOND>
5

> <PUBCHEM_CACTVS_SUBSKEYS>
AAADceB7OAAAAAAAAAAAAAAAAAAAAAAAAAAwYMAAAAAAAAABUAAAHgAEAAAADAzBmAYyxoMQRACJAiVSUwCCCAAlIgAoiAEObMoMJjLEtZuEMShkxhHI6Ye4yQCeCEAAAAAAAAAQgAAAAAAAAAAAAAAAAA==

> <PUBCHEM_IUPAC_OPENEYE_NAME>
N-benzyl-N-(4-methoxyphenyl)-4-nitro-benzamide

> <PUBCHEM_IUPAC_CAS_NAME>
N-(4-methoxyphenyl)-4-nitro-N-(phenylmethyl)benzamide

> <PUBCHEM_IUPAC_NAME>
N-benzyl-N-(4-methoxyphenyl)-4-nitrobenzamide

> <PUBCHEM_IUPAC_SYSTEMATIC_NAME>
N-(4-methoxyphenyl)-4-nitro-N-(phenylmethyl)benzamide

> <PUBCHEM_IUPAC_TRADITIONAL_NAME>
N-benzyl-N-(4-methoxyphenyl)-4-nitro-benzamide

> <PUBCHEM_IUPAC_INCHI>
InChI=1S/C21H18N2O4/c1-27-20-13-11-18(12-14-20)22(15-16-5-3-2-4-6-16)21(24)17-7-9-19(10-8-17)23(25)26/h2-14H,15H2,1H3

> <PUBCHEM_IUPAC_INCHIKEY>
OYZMQTIQJXAHSJ-UHFFFAOYSA-N

> <PUBCHEM_XLOGP3_AA>
4.2

> <PUBCHEM_EXACT_MASS>
362.126657

> <PUBCHEM_MOLECULAR_FORMULA>
C21H18N2O4

> <PUBCHEM_MOLECULAR_WEIGHT>
362.37862

> <PUBCHEM_OPENEYE_CAN_SMILES>
COC1=CC=C(C=C1)N(CC2=CC=CC=C2)C(=O)C3=CC=C(C=C3)[N+](=O)[O-]

> <PUBCHEM_OPENEYE_ISO_SMILES>
COC1=CC=C(C=C1)N(CC2=CC=CC=C2)C(=O)C3=CC=C(C=C3)[N+](=O)[O-]

> <PUBCHEM_CACTVS_TPSA>
75.4

> <PUBCHEM_MONOISOTOPIC_WEIGHT>
362.126657

> <PUBCHEM_TOTAL_CHARGE>
0

> <PUBCHEM_HEAVY_ATOM_COUNT>
27

> <PUBCHEM_ATOM_DEF_STEREO_COUNT>
0

> <PUBCHEM_ATOM_UDEF_STEREO_COUNT>
0

> <PUBCHEM_BOND_DEF_STEREO_COUNT>
0

> <PUBCHEM_BOND_UDEF_STEREO_COUNT>
0

> <PUBCHEM_ISOTOPIC_ATOM_COUNT>
0

> <PUBCHEM_COMPONENT_COUNT>
1

> <PUBCHEM_CACTVS_TAUTO_COUNT>
1

> <PUBCHEM_COORDINATE_TYPE>
1

> <PUBCHEM_BONDANNOTATIONS>
11  18  8

$$$$
45769398
  CDK     1229141458

 48 50  0  0  0  0  0  0  0  0999 V2000
    3.7320   -5.4239    0.0000 Cl  0  0  0  0  0  0  0  0  0  0  0  0
    7.5622    4.6149    0.0000 O   0  0  0  0  0  0  0  0  0  0  0  0
    5.4641   -1.4239    0.0000 O   0  0  0  0  0  0  0  0  0  0  0  0
    7.1962    1.5761    0.0000 N   0  0  0  0  0  0  0  0  0  0  0  0
    5.4641    0.5761    0.0000 N   0  0  0  0  0  0  0  0  0  0  0  0
    3.7320   -1.4239    0.0000 N   0  0  0  0  0  0  0  0  0  0  0  0
    7.2532    3.6639    0.0000 N   0  0  0  0  0  0  0  0  0  0  0  0
    6.3301    2.0761    0.0000 C   0  0  0  0  0  0  0  0  0  0  0  0
    7.1962    0.5761    0.0000 C   0  0  0  0  0  0  0  0  0  0  0  0
    5.4641    1.5761    0.0000 C   0  0  0  0  0  0  0  0  0  0  0  0
    6.3301    0.0761    0.0000 C   0  0  0  0  0  0  0  0  0  0  0  0
    8.0622    2.0761    0.0000 C   0  0  0  0  0  0  0  0  0  0  0  0
    4.5981    0.0761    0.0000 C   0  0  0  0  0  0  0  0  0  0  0  0
    8.0622    3.0761    0.0000 C   0  0  0  0  0  0  0  0  0  0  0  0
    4.5981   -0.9239    0.0000 C   0  0  0  0  0  0  0  0  0  0  0  0
    8.8712    3.6639    0.0000 C   0  0  0  0  0  0  0  0  0  0  0  0
    8.5622    4.6149    0.0000 C   0  0  0  0  0  0  0  0  0  0  0  0
    3.7320   -2.4239    0.0000 C   0  0  0  0  0  0  0  0  0  0  0  0
    2.8660   -2.9239    0.0000 C   0  0  0  0  0  0  0  0  0  0  0  0
    9.1500    5.4239    0.0000 C   0  0  0  0  0  0  0  0  0  0  0  0
    4.5981   -2.9239    0.0000 C   0  0  0  0  0  0  0  0  0  0  0  0
    2.8660   -3.9239    0.0000 C   0  0  0  0  0  0  0  0  0  0  0  0
    2.0000   -2.4239    0.0000 C   0  0  0  0  0  0  0  0  0  0  0  0
    4.5981   -3.9239    0.0000 C   0  0  0  0  0  0  0  0  0  0  0  0
    3.7320   -4.4239    0.0000 C   0  0  0  0  0  0  0  0  0  0  0  0
    7.4082   -0.0065    0.0000 H   0  0  0  0  0  0  0  0  0  0  0  0
    7.8067    0.6837    0.0000 H   0  0  0  0  0  0  0  0  0  0  0  0
    6.7287    2.5510    0.0000 H   0  0  0  0  0  0  0  0  0  0  0  0
    5.9316    2.5510    0.0000 H   0  0  0  0  0  0  0  0  0  0  0  0
    5.9316   -0.3989    0.0000 H   0  0  0  0  0  0  0  0  0  0  0  0
    6.7287   -0.3989    0.0000 H   0  0  0  0  0  0  0  0  0  0  0  0
    5.2520    2.1587    0.0000 H   0  0  0  0  0  0  0  0  0  0  0  0
    4.8535    1.4684    0.0000 H   0  0  0  0  0  0  0  0  0  0  0  0
    8.2742    1.4935    0.0000 H   0  0  0  0  0  0  0  0  0  0  0  0
    8.6728    2.1837    0.0000 H   0  0  0  0  0  0  0  0  0  0  0  0
    4.3860    0.6587    0.0000 H   0  0  0  0  0  0  0  0  0  0  0  0
    3.9875   -0.0316    0.0000 H   0  0  0  0  0  0  0  0  0  0  0  0
    9.4608    3.4723    0.0000 H   0  0  0  0  0  0  0  0  0  0  0  0
    3.1951   -1.1139    0.0000 H   0  0  0  0  0  0  0  0  0  0  0  0
    9.6516    5.0595    0.0000 H   0  0  0  0  0  0  0  0  0  0  0  0
    9.5144    5.9255    0.0000 H   0  0  0  0  0  0  0  0  0  0  0  0
    8.6484    5.7884    0.0000 H   0  0  0  0  0  0  0  0  0  0  0  0
    5.1350   -2.6139    0.0000 H   0  0  0  0  0  0  0  0  0  0  0  0
    2.3291   -4.2339    0.0000 H   0  0  0  0  0  0  0  0  0  0  0  0
    2.3100   -1.8870    0.0000 H   0  0  0  0  0  0  0  0  0  0  0  0
    1.4631   -2.1139    0.0000 H   0  0  0  0  0  0  0  0  0  0  0  0
    1.6900   -2.9609    0.0000 H   0  0  0  0  0  0  0  0  0  0  0  0
    5.1350   -4.2339    0.0000 H   0  0  0  0  0  0  0  0  0  0  0  0
  1 25  1  0  0  0  0 
  2  7  1  0  0  0  0 
  2 17  1  0  0  0  0 
  3 15  2  0  0  0  0 
  4  8  1  0  0  0  0 
  4  9  1  0  0  0  0 
  4 12  1  0  0  0  0 
  5 10  1  0  0  0  0 
  5 11  1  0  0  0  0 
  5 13  1  0  0  0  0 
  6 15  1  0  0  0  0 
  6 18  1  0  0  0  0 
  6 39  1  0  0  0  0 
  7 14  2  0  0  0  0 
  8 10  1  0  0  0  0 
  8 28  1  0  0  0  0 
  8 29  1  0  0  0  0 
  9 11  1  0  0  0  0 
  9 26  1  0  0  0  0 
  9 27  1  0  0  0  0 
 10 32  1  0  0  0  0 
 10 33  1  0  0  0  0 
 11 30  1  0  0  0  0 
 11 31  1  0  0  0  0 
 12 14  1  0  0  0  0 
 12 34  1  0  0  0  0 
 12 35  1  0  0  0  0 
 13 15  1  0  0  0  0 
 13 36  1  0  0  0  0 
 13 37  1  0  0  0  0 
 14 16  1  0  0  0  0 
 16 17  2  0  0  0  0 
 16 38  1  0  0  0  0 
 17 20  1  0  0  0  0 
 18 19  2  0  0  0  0 
 18 21  1  0  0  0  0 
 19 22  1  0  0  0  0 
 19 23  1  0  0  0  0 
 20 40  1  0  0  0  0 
 20 41  1  0  0  0  0 
 20 42  1  0  0  0  0 
 21 24  2  0  0  0  0 
 21 43  1  0  0  0  0 
 22 25  2  0  0  0  0 
 22 44  1  0  0  0  0 
 23 45  1  0  0  0  0 
 23 46  1  0  0  0  0 
 23 47  1  0  0  0  0 
 24 25  1  0  0  0  0 
 24 48  1  0  0  0  0 
M  END
> <cdk:Title>
45769398

> <cdk:Remark>
null

> <PUBCHEM_COMPOUND_CID>
45769398

> <PUBCHEM_COMPOUND_CANONICALIZED>
1

> <PUBCHEM_CACTVS_COMPLEXITY>
445

> <PUBCHEM_CACTVS_HBOND_ACCEPTOR>
5

> <PUBCHEM_CACTVS_HBOND_DONOR>
1

> <PUBCHEM_CACTVS_ROTATABLE_BOND>
5

> <PUBCHEM_CACTVS_SUBSKEYS>
AAADceB7sAAEAAAAAAAAAAAAAAAAAWAAAAA8QAAAAAAAAAABwAAAHgIUAAAADA7BniQyxJPQAACpA6VyUgCCAAAlJwAomCG+btoIZjrBk7OUMYhmlBjIyUc0gAAOAABAIAACAAAAAIBAAAQAAAAAAAAAAA==

> <PUBCHEM_IUPAC_OPENEYE_NAME>
N-(4-chloro-2-methyl-phenyl)-2-[4-[(5-methylisoxazol-3-yl)methyl]piperazin-1-yl]acetamide

> <PUBCHEM_IUPAC_CAS_NAME>
N-(4-chloro-2-methylphenyl)-2-[4-[(5-methyl-3-isoxazolyl)methyl]-1-piperazinyl]acetamide

> <PUBCHEM_IUPAC_NAME>
N-(4-chloro-2-methylphenyl)-2-[4-[(5-methyl-1,2-oxazol-3-yl)methyl]piperazin-1-yl]acetamide

> <PUBCHEM_IUPAC_SYSTEMATIC_NAME>
N-(4-chloranyl-2-methyl-phenyl)-2-[4-[(5-methyl-1,2-oxazol-3-yl)methyl]piperazin-1-yl]ethanamide

> <PUBCHEM_IUPAC_TRADITIONAL_NAME>
N-(4-chloro-2-methyl-phenyl)-2-[4-[(5-methylisoxazol-3-yl)methyl]piperazino]acetamide

> <PUBCHEM_IUPAC_INCHI>
InChI=1S/C18H23ClN4O2/c1-13-9-15(19)3-4-17(13)20-18(24)12-23-7-5-22(6-8-23)11-16-10-14(2)25-21-16/h3-4,9-10H,5-8,11-12H2,1-2H3,(H,20,24)

> <PUBCHEM_IUPAC_INCHIKEY>
UIIQYZWPTVFGFV-UHFFFAOYSA-N

> <PUBCHEM_XLOGP3_AA>
2.3

> <PUBCHEM_EXACT_MASS>
362.150954

> <PUBCHEM_MOLECULAR_FORMULA>
C18H23ClN4O2

> <PUBCHEM_MOLECULAR_WEIGHT>
362.85382

> <PUBCHEM_OPENEYE_CAN_SMILES>
CC1=CC(=NO1)CN2CCN(CC2)CC(=O)NC3=C(C=C(C=C3)Cl)C

> <PUBCHEM_OPENEYE_ISO_SMILES>
CC1=CC(=NO1)CN2CCN(CC2)CC(=O)NC3=C(C=C(C=C3)Cl)C

> <PUBCHEM_CACTVS_TPSA>
61.6

> <PUBCHEM_MONOISOTOPIC_WEIGHT>
362.150954

> <PUBCHEM_TOTAL_CHARGE>
0

> <PUBCHEM_HEAVY_ATOM_COUNT>
25

> <PUBCHEM_ATOM_DEF_STEREO_COUNT>
0

> <PUBCHEM_ATOM_UDEF_STEREO_COUNT>
0

> <PUBCHEM_BOND_DEF_STEREO_COUNT>
0

> <PUBCHEM_BOND_UDEF_STEREO_COUNT>
0

> <PUBCHEM_ISOTOPIC_ATOM_COUNT>
0

> <PUBCHEM_COMPONENT_COUNT>
1

> <PUBCHEM_CACTVS_TAUTO_COUNT>
2

> <PUBCHEM_COORDINATE_TYPE>
1

> <PUBCHEM_BONDANNOTATIONS>
14  16  8

$$$$
32830389
  CDK     1229141458

 42 44  0  0  0  0  0  0  0  0999 V2000
    2.0000    2.3961    0.0000 Cl  0  0  0  0  0  0  0  0  0  0  0  0
    9.2765    2.3132    0.0000 S   0  0  0  0  0  0  0  0  0  0  0  0
    3.4945    1.4255    0.0000 S   0  0  0  0  0  0  0  0  0  0  0  0
    6.7021   -0.3740    0.0000 O   0  0  0  0  0  0  0  0  0  0  0  0
    9.5553    0.5531    0.0000 N   0  0  0  0  0  0  0  0  0  0  0  0
   10.8643    1.5042    0.0000 N   0  0  0  0  0  0  0  0  0  0  0  0
   11.1733    0.5531    0.0000 N   0  0  0  0  0  0  0  0  0  0  0  0
    6.1669    1.2733    0.0000 N   0  0  0  0  0  0  0  0  0  0  0  0
    8.6042    0.2441    0.0000 C   0  0  0  0  0  0  0  0  0  0  0  0
    7.8611    0.9132    0.0000 C   0  0  0  0  0  0  0  0  0  0  0  0
   10.3643   -0.0347    0.0000 C   0  0  0  0  0  0  0  0  0  0  0  0
   10.3643   -1.0347    0.0000 C   0  0  0  0  0  0  0  0  0  0  0  0
    9.8643    1.5042    0.0000 C   0  0  0  0  0  0  0  0  0  0  0  0
    6.9100    0.6042    0.0000 C   0  0  0  0  0  0  0  0  0  0  0  0
    9.4983   -1.5347    0.0000 C   0  0  0  0  0  0  0  0  0  0  0  0
   11.2303   -1.5347    0.0000 C   0  0  0  0  0  0  0  0  0  0  0  0
    5.2158    0.9643    0.0000 C   0  0  0  0  0  0  0  0  0  0  0  0
    9.4983   -2.5347    0.0000 C   0  0  0  0  0  0  0  0  0  0  0  0
   11.2303   -2.5347    0.0000 C   0  0  0  0  0  0  0  0  0  0  0  0
   10.3643   -3.0347    0.0000 C   0  0  0  0  0  0  0  0  0  0  0  0
    4.4727    1.6334    0.0000 C   0  0  0  0  0  0  0  0  0  0  0  0
    8.6322   -3.0347    0.0000 C   0  0  0  0  0  0  0  0  0  0  0  0
    4.5772    2.6280    0.0000 C   0  0  0  0  0  0  0  0  0  0  0  0
    3.6637    3.0347    0.0000 C   0  0  0  0  0  0  0  0  0  0  0  0
    2.9945    2.2916    0.0000 C   0  0  0  0  0  0  0  0  0  0  0  0
    8.1157   -0.1376    0.0000 H   0  0  0  0  0  0  0  0  0  0  0  0
    8.8953   -0.3034    0.0000 H   0  0  0  0  0  0  0  0  0  0  0  0
    8.3496    1.2949    0.0000 H   0  0  0  0  0  0  0  0  0  0  0  0
    7.5700    1.4606    0.0000 H   0  0  0  0  0  0  0  0  0  0  0  0
    8.9613   -1.2247    0.0000 H   0  0  0  0  0  0  0  0  0  0  0  0
   11.2287    2.0057    0.0000 H   0  0  0  0  0  0  0  0  0  0  0  0
   11.7673   -1.2247    0.0000 H   0  0  0  0  0  0  0  0  0  0  0  0
    6.2958    1.8798    0.0000 H   0  0  0  0  0  0  0  0  0  0  0  0
    4.7273    0.5826    0.0000 H   0  0  0  0  0  0  0  0  0  0  0  0
    5.5069    0.4169    0.0000 H   0  0  0  0  0  0  0  0  0  0  0  0
   11.7673   -2.8447    0.0000 H   0  0  0  0  0  0  0  0  0  0  0  0
   10.3643   -3.6547    0.0000 H   0  0  0  0  0  0  0  0  0  0  0  0
    8.3222   -2.4978    0.0000 H   0  0  0  0  0  0  0  0  0  0  0  0
    8.0953   -3.3447    0.0000 H   0  0  0  0  0  0  0  0  0  0  0  0
    8.9422   -3.5716    0.0000 H   0  0  0  0  0  0  0  0  0  0  0  0
    5.1141    2.9380    0.0000 H   0  0  0  0  0  0  0  0  0  0  0  0
    3.5348    3.6411    0.0000 H   0  0  0  0  0  0  0  0  0  0  0  0
  1 25  1  0  0  0  0 
  2 13  2  0  0  0  0 
  3 21  1  0  0  0  0 
  3 25  1  0  0  0  0 
  4 14  2  0  0  0  0 
  5  9  1  0  0  0  0 
  5 11  1  0  0  0  0 
  5 13  1  0  0  0  0 
  6  7  1  0  0  0  0 
  6 13  1  0  0  0  0 
  6 31  1  0  0  0  0 
  7 11  2  0  0  0  0 
  8 14  1  0  0  0  0 
  8 17  1  0  0  0  0 
  8 33  1  0  0  0  0 
  9 10  1  0  0  0  0 
  9 26  1  0  0  0  0 
  9 27  1  0  0  0  0 
 10 14  1  0  0  0  0 
 10 28  1  0  0  0  0 
 10 29  1  0  0  0  0 
 11 12  1  0  0  0  0 
 12 15  1  0  0  0  0 
 12 16  2  0  0  0  0 
 15 18  2  0  0  0  0 
 15 30  1  0  0  0  0 
 16 19  1  0  0  0  0 
 16 32  1  0  0  0  0 
 17 21  1  0  0  0  0 
 17 34  1  0  0  0  0 
 17 35  1  0  0  0  0 
 18 20  1  0  0  0  0 
 18 22  1  0  0  0  0 
 19 20  2  0  0  0  0 
 19 36  1  0  0  0  0 
 20 37  1  0  0  0  0 
 21 23  2  0  0  0  0 
 22 38  1  0  0  0  0 
 22 39  1  0  0  0  0 
 22 40  1  0  0  0  0 
 23 24  1  0  0  0  0 
 23 41  1  0  0  0  0 
 24 25  2  0  0  0  0 
 24 42  1  0  0  0  0 
M  END
> <cdk:Title>
32830389

> <cdk:Remark>
null

> <PUBCHEM_COMPOUND_CID>
32830389

> <PUBCHEM_COMPOUND_CANONICALIZED>
1

> <PUBCHEM_CACTVS_COMPLEXITY>
545

> <PUBCHEM_CACTVS_HBOND_ACCEPTOR>
4

> <PUBCHEM_CACTVS_HBOND_DONOR>
2

> <PUBCHEM_CACTVS_ROTATABLE_BOND>
6

> <PUBCHEM_CACTVS_SUBSKEYS>
AAADceB7oABkAAAAAAAAAAAAAAAAASIAAAAwAAAAAAAAAAABwAAAHgYYAAAADALB2CQzAYPiAAisAiNyMACTAIAgDRlNiJkoBpiIIKqh2xGEIAhgngKoiAcQgEAOAAACAAAAAAAAAAQAAAAAAAAAAAAAAA==

> <PUBCHEM_IUPAC_OPENEYE_NAME>
N-[(5-chloro-2-thienyl)methyl]-3-[3-(m-tolyl)-5-thioxo-1H-1,2,4-triazol-4-yl]propanamide

> <PUBCHEM_IUPAC_CAS_NAME>
N-[(5-chloro-2-thiophenyl)methyl]-3-[3-(3-methylphenyl)-5-sulfanylidene-1H-1,2,4-triazol-4-yl]propanamide

> <PUBCHEM_IUPAC_NAME>
N-[(5-chlorothiophen-2-yl)methyl]-3-[3-(3-methylphenyl)-5-sulfanylidene-1H-1,2,4-triazol-4-yl]propanamide

> <PUBCHEM_IUPAC_SYSTEMATIC_NAME>
N-[(5-chloranylthiophen-2-yl)methyl]-3-[3-(3-methylphenyl)-5-sulfanylidene-1H-1,2,4-triazol-4-yl]propanamide

> <PUBCHEM_IUPAC_TRADITIONAL_NAME>
N-[(5-chloro-2-thienyl)methyl]-3-[3-(m-tolyl)-5-thioxo-1H-1,2,4-triazol-4-yl]propionamide

> <PUBCHEM_IUPAC_INCHI>
InChI=1S/C17H17ClN4OS2/c1-11-3-2-4-12(9-11)16-20-21-17(24)22(16)8-7-15(23)19-10-13-5-6-14(18)25-13/h2-6,9H,7-8,10H2,1H3,(H,19,23)(H,21,24)

> <PUBCHEM_IUPAC_INCHIKEY>
NWUHMLGPGOEZFS-UHFFFAOYSA-N

> <PUBCHEM_XLOGP3_AA>
3.4

> <PUBCHEM_EXACT_MASS>
392.053231

> <PUBCHEM_MOLECULAR_FORMULA>
C17H17ClN4OS2

> <PUBCHEM_MOLECULAR_WEIGHT>
392.92608

> <PUBCHEM_OPENEYE_CAN_SMILES>
CC1=CC=CC(=C1)C2=NNC(=S)N2CCC(=O)NCC3=CC=C(S3)Cl

> <PUBCHEM_OPENEYE_ISO_SMILES>
CC1=CC=CC(=C1)C2=NNC(=S)N2CCC(=O)NCC3=CC=C(S3)Cl

> <PUBCHEM_CACTVS_TPSA>
117

> <PUBCHEM_MONOISOTOPIC_WEIGHT>
392.053231

> <PUBCHEM_TOTAL_CHARGE>
0

> <PUBCHEM_HEAVY_ATOM_COUNT>
25

> <PUBCHEM_ATOM_DEF_STEREO_COUNT>
0

> <PUBCHEM_ATOM_UDEF_STEREO_COUNT>
0

> <PUBCHEM_BOND_DEF_STEREO_COUNT>
0

> <PUBCHEM_BOND_UDEF_STEREO_COUNT>
0

> <PUBCHEM_ISOTOPIC_ATOM_COUNT>
0

> <PUBCHEM_COMPONENT_COUNT>
1

> <PUBCHEM_CACTVS_TAUTO_COUNT>
4

> <PUBCHEM_COORDINATE_TYPE>
1

> <PUBCHEM_BONDANNOTATIONS>
12  15  8

$$$$
40581200
  CDK     1229141458

 68 70  0  0  0  0  0  0  0  0999 V2000
    5.0268    2.0374    0.0000 S   0  0  0  0  0  0  0  0  0  0  0  0
    4.5981    0.8220    0.0000 O   0  0  0  0  0  0  0  0  0  0  0  0
    7.1962    1.3220    0.0000 O   0  0  0  0  0  0  0  0  0  0  0  0
    5.4641   -4.6780    0.0000 O   0  0  0  0  0  0  0  0  0  0  0  0
   10.6603    1.3220    0.0000 O   0  0  0  0  0  0  0  0  0  0  0  0
    5.5126    5.0594    0.0000 O   0  0  0  0  0  0  0  0  0  0  0  0
    6.3301   -0.1780    0.0000 N   0  0  0  0  0  0  0  0  0  0  0  0
    3.7320   -0.6780    0.0000 N   0  0  0  0  0  0  0  0  0  0  0  0
    4.9920    3.0368    0.0000 N   0  0  0  0  0  0  0  0  0  0  0  0
    7.5467    2.6257    0.0000 N   0  0  0  0  0  0  0  0  0  0  0  0
    7.1776    4.5820    0.0000 N   0  0  0  0  0  0  0  0  0  0  0  0
    2.8660   -0.1780    0.0000 C   0  0  0  0  0  0  0  0  0  0  0  0
    5.4641   -0.6780    0.0000 C   0  0  2  0  0  0  0  0  0  0  0  0
    4.5981   -0.1780    0.0000 C   0  0  0  0  0  0  0  0  0  0  0  0
    5.4641   -1.6780    0.0000 C   0  0  0  0  0  0  0  0  0  0  0  0
    7.1962   -0.6780    0.0000 C   0  0  0  0  0  0  0  0  0  0  0  0
    2.0000    0.3220    0.0000 C   0  0  0  0  0  0  0  0  0  0  0  0
    2.3660   -1.0440    0.0000 C   0  0  0  0  0  0  0  0  0  0  0  0
    3.3660    0.6881    0.0000 C   0  0  0  0  0  0  0  0  0  0  0  0
    6.3301    0.8220    0.0000 C   0  0  0  0  0  0  0  0  0  0  0  0
    8.0622   -0.1780    0.0000 C   0  0  0  0  0  0  0  0  0  0  0  0
    4.5981   -2.1780    0.0000 C   0  0  0  0  0  0  0  0  0  0  0  0
    6.3301   -2.1780    0.0000 C   0  0  0  0  0  0  0  0  0  0  0  0
    5.9881    1.7617    0.0000 C   0  0  0  0  0  0  0  0  0  0  0  0
    4.5981   -3.1780    0.0000 C   0  0  0  0  0  0  0  0  0  0  0  0
    6.3301   -3.1780    0.0000 C   0  0  0  0  0  0  0  0  0  0  0  0
    8.0622    0.8220    0.0000 C   0  0  0  0  0  0  0  0  0  0  0  0
    8.9282   -0.6780    0.0000 C   0  0  0  0  0  0  0  0  0  0  0  0
    5.4641   -3.6780    0.0000 C   0  0  0  0  0  0  0  0  0  0  0  0
    6.5473    2.5908    0.0000 C   0  0  0  0  0  0  0  0  0  0  0  0
    8.9282    1.3220    0.0000 C   0  0  0  0  0  0  0  0  0  0  0  0
    9.7942   -0.1780    0.0000 C   0  0  0  0  0  0  0  0  0  0  0  0
    9.7942    0.8220    0.0000 C   0  0  0  0  0  0  0  0  0  0  0  0
    5.9316    3.3788    0.0000 C   0  0  0  0  0  0  0  0  0  0  0  0
    6.2073    4.3400    0.0000 C   0  0  0  0  0  0  0  0  0  0  0  0
    4.5981   -5.1780    0.0000 C   0  0  0  0  0  0  0  0  0  0  0  0
   11.5263    0.8220    0.0000 C   0  0  0  0  0  0  0  0  0  0  0  0
    5.4641   -0.0580    0.0000 H   0  0  0  0  0  0  0  0  0  0  0  0
    3.7320   -1.2980    0.0000 H   0  0  0  0  0  0  0  0  0  0  0  0
    6.7976   -1.1529    0.0000 H   0  0  0  0  0  0  0  0  0  0  0  0
    7.5947   -1.1529    0.0000 H   0  0  0  0  0  0  0  0  0  0  0  0
    2.3100    0.8590    0.0000 H   0  0  0  0  0  0  0  0  0  0  0  0
    3.9030    0.3781    0.0000 H   0  0  0  0  0  0  0  0  0  0  0  0
    3.6760    1.2250    0.0000 H   0  0  0  0  0  0  0  0  0  0  0  0
    2.8291    0.9981    0.0000 H   0  0  0  0  0  0  0  0  0  0  0  0
    1.8291   -0.7340    0.0000 H   0  0  0  0  0  0  0  0  0  0  0  0
    2.0560   -1.5809    0.0000 H   0  0  0  0  0  0  0  0  0  0  0  0
    2.9030   -1.3540    0.0000 H   0  0  0  0  0  0  0  0  0  0  0  0
    1.4631    0.6320    0.0000 H   0  0  0  0  0  0  0  0  0  0  0  0
    1.6900   -0.2149    0.0000 H   0  0  0  0  0  0  0  0  0  0  0  0
    4.0611   -1.8680    0.0000 H   0  0  0  0  0  0  0  0  0  0  0  0
    6.8671   -1.8680    0.0000 H   0  0  0  0  0  0  0  0  0  0  0  0
    4.0611   -3.4880    0.0000 H   0  0  0  0  0  0  0  0  0  0  0  0
    6.8671   -3.4880    0.0000 H   0  0  0  0  0  0  0  0  0  0  0  0
    7.5252    1.1320    0.0000 H   0  0  0  0  0  0  0  0  0  0  0  0
    8.9282   -1.2980    0.0000 H   0  0  0  0  0  0  0  0  0  0  0  0
    8.9282    1.9420    0.0000 H   0  0  0  0  0  0  0  0  0  0  0  0
   10.3312   -0.4880    0.0000 H   0  0  0  0  0  0  0  0  0  0  0  0
    7.8378    3.1731    0.0000 H   0  0  0  0  0  0  0  0  0  0  0  0
    7.8752    2.0999    0.0000 H   0  0  0  0  0  0  0  0  0  0  0  0
    4.2881   -4.6410    0.0000 H   0  0  0  0  0  0  0  0  0  0  0  0
    4.0611   -5.4880    0.0000 H   0  0  0  0  0  0  0  0  0  0  0  0
    4.9081   -5.7149    0.0000 H   0  0  0  0  0  0  0  0  0  0  0  0
   11.2163    0.2851    0.0000 H   0  0  0  0  0  0  0  0  0  0  0  0
   12.0632    0.5120    0.0000 H   0  0  0  0  0  0  0  0  0  0  0  0
   11.8363    1.3590    0.0000 H   0  0  0  0  0  0  0  0  0  0  0  0
    7.3485    5.1780    0.0000 H   0  0  0  0  0  0  0  0  0  0  0  0
    7.6083    4.1360    0.0000 H   0  0  0  0  0  0  0  0  0  0  0  0
  1  9  1  0  0  0  0 
  1 24  1  0  0  0  0 
  2 14  2  0  0  0  0 
  3 20  2  0  0  0  0 
  4 29  1  0  0  0  0 
  4 36  1  0  0  0  0 
  5 33  1  0  0  0  0 
  5 37  1  0  0  0  0 
  6 35  2  0  0  0  0 
 13  7  1  1  0  0  0 
  7 16  1  0  0  0  0 
  7 20  1  0  0  0  0 
  8 12  1  0  0  0  0 
  8 14  1  0  0  0  0 
  8 39  1  0  0  0  0 
  9 34  2  0  0  0  0 
 10 30  1  0  0  0  0 
 10 59  1  0  0  0  0 
 10 60  1  0  0  0  0 
 11 35  1  0  0  0  0 
 11 67  1  0  0  0  0 
 11 68  1  0  0  0  0 
 12 17  1  0  0  0  0 
 12 18  1  0  0  0  0 
 12 19  1  0  0  0  0 
 13 14  1  0  0  0  0 
 13 15  1  0  0  0  0 
 13 38  1  0  0  0  0 
 15 22  2  0  0  0  0 
 15 23  1  0  0  0  0 
 16 21  1  0  0  0  0 
 16 40  1  0  0  0  0 
 16 41  1  0  0  0  0 
 17 42  1  0  0  0  0 
 17 49  1  0  0  0  0 
 17 50  1  0  0  0  0 
 18 46  1  0  0  0  0 
 18 47  1  0  0  0  0 
 18 48  1  0  0  0  0 
 19 43  1  0  0  0  0 
 19 44  1  0  0  0  0 
 19 45  1  0  0  0  0 
 20 24  1  0  0  0  0 
 21 27  2  0  0  0  0 
 21 28  1  0  0  0  0 
 22 25  1  0  0  0  0 
 22 51  1  0  0  0  0 
 23 26  2  0  0  0  0 
 23 52  1  0  0  0  0 
 24 30  2  0  0  0  0 
 25 29  2  0  0  0  0 
 25 53  1  0  0  0  0 
 26 29  1  0  0  0  0 
 26 54  1  0  0  0  0 
 27 31  1  0  0  0  0 
 27 55  1  0  0  0  0 
 28 32  2  0  0  0  0 
 28 56  1  0  0  0  0 
 30 34  1  0  0  0  0 
 31 33  2  0  0  0  0 
 31 57  1  0  0  0  0 
 32 33  1  0  0  0  0 
 32 58  1  0  0  0  0 
 34 35  1  0  0  0  0 
 36 61  1  0  0  0  0 
 36 62  1  0  0  0  0 
 36 63  1  0  0  0  0 
 37 64  1  0  0  0  0 
 37 65  1  0  0  0  0 
 37 66  1  0  0  0  0 
M  END
> <cdk:Title>
40581200

> <cdk:Remark>
null

> <PUBCHEM_COMPOUND_CID>
40581200

> <PUBCHEM_COMPOUND_CANONICALIZED>
1

> <PUBCHEM_CACTVS_COMPLEXITY>
793

> <PUBCHEM_CACTVS_HBOND_ACCEPTOR>
8

> <PUBCHEM_CACTVS_HBOND_DONOR>
3

> <PUBCHEM_CACTVS_ROTATABLE_BOND>
10

> <PUBCHEM_CACTVS_SUBSKEYS>
AAADceB7uABAAAAAAAAAAAAAAAAAAWAAAAAwYAAAAAAAAAAB0AAAHgQQQAAADKzB3gYyx5PABACsAyVyUACDCBAmMAAImDWuXNgMZjqE9buUMaxk1hGI6Uec24OOIAAAAAAAAABAAAAAAAAAAAAAAAAAAA==

> <PUBCHEM_IUPAC_OPENEYE_NAME>
4-amino-N5-[(1S)-2-(tert-butylamino)-1-(4-methoxyphenyl)-2-oxo-ethyl]-N5-[(4-methoxyphenyl)methyl]isothiazole-3,5-dicarboxamide

> <PUBCHEM_IUPAC_CAS_NAME>
4-amino-N5-[(1S)-2-(tert-butylamino)-1-(4-methoxyphenyl)-2-oxoethyl]-N5-[(4-methoxyphenyl)methyl]isothiazole-3,5-dicarboxamide

> <PUBCHEM_IUPAC_NAME>
4-amino-5-N-[(1S)-2-(tert-butylamino)-1-(4-methoxyphenyl)-2-oxoethyl]-5-N-[(4-methoxyphenyl)methyl]-1,2-thiazole-3,5-dicarboxamide

> <PUBCHEM_IUPAC_SYSTEMATIC_NAME>
4-azanyl-N5-[(1S)-2-(tert-butylamino)-1-(4-methoxyphenyl)-2-oxidanylidene-ethyl]-N5-[(4-methoxyphenyl)methyl]-1,2-thiazole-3,5-dicarboxamide

> <PUBCHEM_IUPAC_TRADITIONAL_NAME>
4-amino-N'-[(1S)-2-(tert-butylamino)-2-keto-1-(4-methoxyphenyl)ethyl]-N'-p-anisyl-isothiazole-3,5-dicarboxamide

> <PUBCHEM_IUPAC_INCHI>
InChI=1S/C26H31N5O5S/c1-26(2,3)29-24(33)21(16-8-12-18(36-5)13-9-16)31(14-15-6-10-17(35-4)11-7-15)25(34)22-19(27)20(23(28)32)30-37-22/h6-13,21H,14,27H2,1-5H3,(H2,28,32)(H,29,33)/t21-/m0/s1

> <PUBCHEM_IUPAC_INCHIKEY>
DZCODDLMYACBLH-NRFANRHFSA-N

> <PUBCHEM_XLOGP3_AA>
3.3

> <PUBCHEM_EXACT_MASS>
525.20459

> <PUBCHEM_MOLECULAR_FORMULA>
C26H31N5O5S

> <PUBCHEM_MOLECULAR_WEIGHT>
525.61984

> <PUBCHEM_OPENEYE_CAN_SMILES>
CC(C)(C)NC(=O)C(C1=CC=C(C=C1)OC)N(CC2=CC=C(C=C2)OC)C(=O)C3=C(C(=NS3)C(=O)N)N

> <PUBCHEM_OPENEYE_ISO_SMILES>
CC(C)(C)NC(=O)[C@H](C1=CC=C(C=C1)OC)N(CC2=CC=C(C=C2)OC)C(=O)C3=C(C(=NS3)C(=O)N)N

> <PUBCHEM_CACTVS_TPSA>
178

> <PUBCHEM_MONOISOTOPIC_WEIGHT>
525.20459

> <PUBCHEM_TOTAL_CHARGE>
0

> <PUBCHEM_HEAVY_ATOM_COUNT>
37

> <PUBCHEM_ATOM_DEF_STEREO_COUNT>
1

> <PUBCHEM_ATOM_UDEF_STEREO_COUNT>
0

> <PUBCHEM_BOND_DEF_STEREO_COUNT>
0

> <PUBCHEM_BOND_UDEF_STEREO_COUNT>
0

> <PUBCHEM_ISOTOPIC_ATOM_COUNT>
0

> <PUBCHEM_COMPONENT_COUNT>
1

> <PUBCHEM_CACTVS_TAUTO_COUNT>
12

> <PUBCHEM_COORDINATE_TYPE>
1

> <PUBCHEM_BONDANNOTATIONS>
1  24  8

$$$$
