
  CDK     0224151638

  7  8  0  0  0  0  0  0  0  0999 V2000
    4.7083    0.2334    0.0000 C   0  0  3  0  0  0  0  0  0  0  0  0
    6.4404    1.2334    0.0000 C   0  0  3  0  0  0  0  0  0  0  0  0
    6.6992    2.1994    0.0000 C   0  0  3  0  0  0  0  0  0  0  0  0
    4.2083    1.0995    0.0000 C   0  0  0  0  0  0  0  0  0  0  0  0
    5.9626    3.1820    0.0000 C   0  0  0  0  0  0  0  0  0  0  0  0
    8.2723    0.4746    0.0000 C   0  0  0  0  0  0  0  0  0  0  0  0
    8.5311    1.4405    0.0000 C   0  0  0  0  0  0  0  0  0  0  0  0
  1  2  1  0  0  0  0 
  1  4  1  0  0  0  0 
  2  5  1  0  0  0  0 
  2  6  1  0  0  0  0 
  3  4  1  0  0  0  0 
  3  5  1  0  0  0  0 
  3  7  1  0  0  0  0 
  6  7  1  0  0  0  0 
M  END
> <PUBCHEM_COMPOUND_CID>
21960503

$$$$
