
  CDK     0202151410

 22 23  0  0  0  0  0  0  0  0999 V2000
    9.2585   -0.0250    0.0000 O   0  0  0  0  0  0  0  0  0  0  0  0
    8.7233   -1.6723    0.0000 N   0  0  0  0  0  0  0  0  0  0  0  0
    4.5032    1.5201    0.0000 N   0  0  0  0  0  0  0  0  0  0  0  0
    9.8822   -2.9594    0.0000 C   0  0  0  0  0  0  0  0  0  0  0  0
    8.9041   -3.1674    0.0000 C   0  0  0  0  0  0  0  0  0  0  0  0
   10.3822   -3.8255    0.0000 C   0  0  0  0  0  0  0  0  0  0  0  0
    8.7996   -4.1619    0.0000 C   0  0  0  0  0  0  0  0  0  0  0  0
    9.7131   -4.5686    0.0000 C   0  0  0  0  0  0  0  0  0  0  0  0
    9.6743   -1.9813    0.0000 C   0  0  0  0  0  0  0  0  0  0  0  0
   10.7483   -2.4594    0.0000 C   0  0  0  0  0  0  0  0  0  0  0  0
   11.6143   -2.9594    0.0000 C   0  0  0  0  0  0  0  0  0  0  0  0
   10.7483   -1.4594    0.0000 C   0  0  0  0  0  0  0  0  0  0  0  0
   12.4803   -2.4594    0.0000 C   0  0  0  0  0  0  0  0  0  0  0  0
   11.6143   -0.9594    0.0000 C   0  0  0  0  0  0  0  0  0  0  0  0
    8.5154   -0.6941    0.0000 C   0  0  0  0  0  0  0  0  0  0  0  0
    7.5643   -0.3851    0.0000 C   0  0  0  0  0  0  0  0  0  0  0  0
    7.3564    0.5930    0.0000 C   0  0  0  0  0  0  0  0  0  0  0  0
    6.8212   -1.0542    0.0000 C   0  0  0  0  0  0  0  0  0  0  0  0
    5.6622    0.2329    0.0000 C   0  0  0  0  0  0  0  0  0  0  0  0
    6.4053    0.9020    0.0000 C   0  0  0  0  0  0  0  0  0  0  0  0
    5.8701   -0.7452    0.0000 C   0  0  0  0  0  0  0  0  0  0  0  0
    4.7111    0.5419    0.0000 C   0  0  0  0  0  0  0  0  0  0  0  0
  1 15  1  0  0  0  0 
  2  9  1  0  0  0  0 
  2 15  1  0  0  0  0 
  3 22  1  0  0  0  0 
  4  5  1  0  0  0  0 
  4  6  1  0  0  0  0 
  4  9  1  0  0  0  0 
  4 10  1  0  0  0  0 
  5  7  1  0  0  0  0 
  6  8  1  0  0  0  0 
  7  8  1  0  0  0  0 
 10 11  1  0  0  0  0 
 10 12  1  0  0  0  0 
 11 13  1  0  0  0  0 
 12 14  1  0  0  0  0 
 15 16  1  0  0  0  0 
 16 17  1  0  0  0  0 
 16 18  1  0  0  0  0 
 17 20  1  0  0  0  0 
 18 21  1  0  0  0  0 
 19 20  1  0  0  0  0 
 19 21  1  0  0  0  0 
 19 22  1  0  0  0  0 
M  END
> <PUBCHEM_COMPOUND_CID>
41655718

$$$$
