
  CDK     1223141415

 21 25  0  0  0  0  0  0  0  0999 V2000
    7.0120   -1.3769    0.0000 C   0  0  2  0  0  0  0  0  0  0  0  0
    7.8781   -0.8769    0.0000 C   0  0  2  0  0  0  0  0  0  0  0  0
    6.1460   -0.8769    0.0000 C   0  0  1  0  0  0  0  0  0  0  0  0
    6.1460    0.1231    0.0000 C   0  0  2  0  0  0  0  0  0  0  0  0
    7.8781    0.1231    0.0000 C   0  0  0  0  0  0  0  0  0  0  0  0
    7.0120    0.6231    0.0000 C   0  0  0  0  0  0  0  0  0  0  0  0
    7.2212   -2.3487    0.0000 C   0  0  0  0  0  0  0  0  0  0  0  0
    8.6151   -1.5440    0.0000 C   0  0  0  0  0  0  0  0  0  0  0  0
    5.2521   -1.4116    0.0000 C   0  0  0  0  0  0  0  0  0  0  0  0
    8.2100   -2.4518    0.0000 C   0  0  0  0  0  0  0  0  0  0  0  0
    5.2521    0.6577    0.0000 C   0  0  0  0  0  0  0  0  0  0  0  0
    4.3460   -0.8977    0.0000 C   0  0  0  0  0  0  0  0  0  0  0  0
    4.3460    0.1439    0.0000 C   0  0  0  0  0  0  0  0  0  0  0  0
    9.6432   -1.4208    0.0000 C   0  0  0  0  0  0  0  0  0  0  0  0
    8.8049   -3.2993    0.0000 C   0  0  0  0  0  0  0  0  0  0  0  0
    5.2772    1.7424    0.0000 C   0  0  0  0  0  0  0  0  0  0  0  0
    3.4022    0.6791    0.0000 C   0  0  0  0  0  0  0  0  0  0  0  0
   10.2575   -2.2543    0.0000 C   0  0  0  0  0  0  0  0  0  0  0  0
    9.8356   -3.1999    0.0000 C   0  0  0  0  0  0  0  0  0  0  0  0
    4.3460    2.2994    0.0000 C   0  0  0  0  0  0  0  0  0  0  0  0
    3.4022    1.7641    0.0000 C   0  0  0  0  0  0  0  0  0  0  0  0
  1  2  1  0  0  0  0 
  1  3  1  0  0  0  0 
  1  7  1  0  0  0  0 
  2  5  1  0  0  0  0 
  2  8  1  0  0  0  0 
  3  4  1  0  0  0  0 
  3  9  1  0  0  0  0 
  4  6  1  0  0  0  0 
  4 11  1  0  0  0  0 
  5  6  1  0  0  0  0 
  7 10  1  0  0  0  0 
  8 10  1  0  0  0  0 
  8 14  1  0  0  0  0 
  9 12  1  0  0  0  0 
 10 15  1  0  0  0  0 
 11 13  1  0  0  0  0 
 11 16  1  0  0  0  0 
 12 13  1  0  0  0  0 
 13 17  1  0  0  0  0 
 14 18  1  0  0  0  0 
 15 19  1  0  0  0  0 
 16 20  1  0  0  0  0 
 17 21  1  0  0  0  0 
 18 19  1  0  0  0  0 
 20 21  1  0  0  0  0 
M  END
> <PUBCHEM_COMPOUND_CID>
11539831

$$$$
