20106795
  CDK     1229141544

 54 57  0  0  0  0  0  0  0  0999 V2000
    9.7528   -1.5705    0.0000 S   0  0  0  0  0  0  0  0  0  0  0  0
    6.1599   -2.3342    0.0000 S   0  0  0  0  0  0  0  0  0  0  0  0
   12.3219    0.6406    0.0000 S   0  0  0  0  0  0  0  0  0  0  0  0
    3.0827   -2.9683    0.0000 S   0  0  0  0  0  0  0  0  0  0  0  0
    9.3867    1.4683    0.0000 O   0  0  0  0  0  0  0  0  0  0  0  0
    3.6759   -0.1137    0.0000 O   0  0  0  0  0  0  0  0  0  0  0  0
    7.9575   -1.9577    0.0000 O   0  0  0  0  0  0  0  0  0  0  0  0
   11.1188    1.4683    0.0000 O   0  0  0  0  0  0  0  0  0  0  0  0
    5.2582    0.5908    0.0000 O   0  0  0  0  0  0  0  0  0  0  0  0
    8.4927   -0.3104    0.0000 N   0  0  0  0  0  0  0  0  0  0  0  0
    6.7985   -0.6705    0.0000 N   0  0  0  0  0  0  0  0  0  0  0  0
   10.2528   -0.0317    0.0000 C   0  0  0  0  0  0  0  0  0  0  0  0
    5.0772   -1.1318    0.0000 C   0  0  0  0  0  0  0  0  0  0  0  0
   11.0618   -0.6194    0.0000 C   0  0  0  0  0  0  0  0  0  0  0  0
    4.5772   -1.9978    0.0000 C   0  0  0  0  0  0  0  0  0  0  0  0
    6.0554   -1.3397    0.0000 C   0  0  0  0  0  0  0  0  0  0  0  0
    9.4438   -0.6194    0.0000 C   0  0  0  0  0  0  0  0  0  0  0  0
    3.5827   -2.1023    0.0000 C   0  0  0  0  0  0  0  0  0  0  0  0
   12.0128   -0.3104    0.0000 C   0  0  0  0  0  0  0  0  0  0  0  0
   10.7528   -1.5705    0.0000 C   0  0  0  0  0  0  0  0  0  0  0  0
    5.2463   -2.7409    0.0000 C   0  0  0  0  0  0  0  0  0  0  0  0
    7.7496   -0.9796    0.0000 C   0  0  0  0  0  0  0  0  0  0  0  0
   10.2528    0.9683    0.0000 C   0  0  0  0  0  0  0  0  0  0  0  0
    4.6705   -0.2182    0.0000 C   0  0  0  0  0  0  0  0  0  0  0  0
   12.8219   -0.8982    0.0000 C   0  0  0  0  0  0  0  0  0  0  0  0
    2.9136   -1.3592    0.0000 C   0  0  0  0  0  0  0  0  0  0  0  0
   13.6309   -0.3104    0.0000 C   0  0  0  0  0  0  0  0  0  0  0  0
    2.0000   -1.7659    0.0000 C   0  0  0  0  0  0  0  0  0  0  0  0
   13.3219    0.6406    0.0000 C   0  0  0  0  0  0  0  0  0  0  0  0
    2.1045   -2.7604    0.0000 C   0  0  0  0  0  0  0  0  0  0  0  0
    3.2692    0.7999    0.0000 C   0  0  0  0  0  0  0  0  0  0  0  0
    9.3867    2.4683    0.0000 C   0  0  0  0  0  0  0  0  0  0  0  0
    2.2747    0.9044    0.0000 C   0  0  0  0  0  0  0  0  0  0  0  0
    8.5207    2.9683    0.0000 C   0  0  0  0  0  0  0  0  0  0  0  0
    5.1174   -3.3474    0.0000 H   0  0  0  0  0  0  0  0  0  0  0  0
   11.1172   -2.0721    0.0000 H   0  0  0  0  0  0  0  0  0  0  0  0
    8.3638    0.2960    0.0000 H   0  0  0  0  0  0  0  0  0  0  0  0
    6.6696   -0.0641    0.0000 H   0  0  0  0  0  0  0  0  0  0  0  0
    3.0424   -0.7527    0.0000 H   0  0  0  0  0  0  0  0  0  0  0  0
   12.8219   -1.5182    0.0000 H   0  0  0  0  0  0  0  0  0  0  0  0
   14.2205   -0.5020    0.0000 H   0  0  0  0  0  0  0  0  0  0  0  0
    1.4631   -1.4559    0.0000 H   0  0  0  0  0  0  0  0  0  0  0  0
    1.6438   -3.1753    0.0000 H   0  0  0  0  0  0  0  0  0  0  0  0
   13.6863    1.1422    0.0000 H   0  0  0  0  0  0  0  0  0  0  0  0
    9.9973    2.3607    0.0000 H   0  0  0  0  0  0  0  0  0  0  0  0
    9.5988    3.0510    0.0000 H   0  0  0  0  0  0  0  0  0  0  0  0
    3.8708    0.9498    0.0000 H   0  0  0  0  0  0  0  0  0  0  0  0
    3.2260    1.4184    0.0000 H   0  0  0  0  0  0  0  0  0  0  0  0
    2.3395    1.5210    0.0000 H   0  0  0  0  0  0  0  0  0  0  0  0
    1.6581    0.9692    0.0000 H   0  0  0  0  0  0  0  0  0  0  0  0
    8.8307    3.5053    0.0000 H   0  0  0  0  0  0  0  0  0  0  0  0
    7.9838    3.2783    0.0000 H   0  0  0  0  0  0  0  0  0  0  0  0
    8.2107    2.4314    0.0000 H   0  0  0  0  0  0  0  0  0  0  0  0
    2.2099    0.2878    0.0000 H   0  0  0  0  0  0  0  0  0  0  0  0
  1 17  1  0  0  0  0 
  1 20  1  0  0  0  0 
  2 16  1  0  0  0  0 
  2 21  1  0  0  0  0 
  3 19  1  0  0  0  0 
  3 29  1  0  0  0  0 
  4 18  1  0  0  0  0 
  4 30  1  0  0  0  0 
  5 23  1  0  0  0  0 
  5 32  1  0  0  0  0 
  6 24  1  0  0  0  0 
  6 31  1  0  0  0  0 
  7 22  2  0  0  0  0 
  8 23  2  0  0  0  0 
  9 24  2  0  0  0  0 
 10 17  1  0  0  0  0 
 10 22  1  0  0  0  0 
 10 37  1  0  0  0  0 
 11 16  1  0  0  0  0 
 11 22  1  0  0  0  0 
 11 38  1  0  0  0  0 
 12 14  1  0  0  0  0 
 12 17  2  0  0  0  0 
 12 23  1  0  0  0  0 
 13 15  1  0  0  0  0 
 13 16  2  0  0  0  0 
 13 24  1  0  0  0  0 
 14 19  1  0  0  0  0 
 14 20  2  0  0  0  0 
 15 18  1  0  0  0  0 
 15 21  2  0  0  0  0 
 18 26  2  0  0  0  0 
 19 25  2  0  0  0  0 
 20 36  1  0  0  0  0 
 21 35  1  0  0  0  0 
 25 27  1  0  0  0  0 
 25 40  1  0  0  0  0 
 26 28  1  0  0  0  0 
 26 39  1  0  0  0  0 
 27 29  2  0  0  0  0 
 27 41  1  0  0  0  0 
 28 30  2  0  0  0  0 
 28 42  1  0  0  0  0 
 29 44  1  0  0  0  0 
 30 43  1  0  0  0  0 
 31 33  1  0  0  0  0 
 31 47  1  0  0  0  0 
 31 48  1  0  0  0  0 
 32 34  1  0  0  0  0 
 32 45  1  0  0  0  0 
 32 46  1  0  0  0  0 
 33 49  1  0  0  0  0 
 33 50  1  0  0  0  0 
 33 54  1  0  0  0  0 
 34 51  1  0  0  0  0 
 34 52  1  0  0  0  0 
 34 53  1  0  0  0  0 
M  END
> <cdk:Title>
20106795

> <cdk:Remark>
null

> <PUBCHEM_COMPOUND_CID>
20106795

> <PUBCHEM_COMPOUND_CANONICALIZED>
1

> <PUBCHEM_CACTVS_COMPLEXITY>
686

> <PUBCHEM_CACTVS_HBOND_ACCEPTOR>
9

> <PUBCHEM_CACTVS_HBOND_DONOR>
2

> <PUBCHEM_CACTVS_ROTATABLE_BOND>
10

> <PUBCHEM_CACTVS_SUBSKEYS>
AAADceB7OABwAAAAAAAAAAAAAAAAASJEiQAAAAAAAAAAAAAB/gAAHgQQAAAADACl2AKziYLABAiMAiDSWACDAIBlCBlIiBkATMiIJjrgtZmGMYhuxANo6WeYyGCOgAAAAAAAAAAAAAAAAAAAAAAAAAAAAA==

> <PUBCHEM_IUPAC_OPENEYE_NAME>
ethyl 2-[[3-ethoxycarbonyl-4-(2-thienyl)-2-thienyl]carbamoylamino]-4-(2-thienyl)thiophene-3-carboxylate

> <PUBCHEM_IUPAC_CAS_NAME>
2-[[[(3-ethoxycarbonyl-4-thiophen-2-yl-2-thiophenyl)amino]-oxomethyl]amino]-4-thiophen-2-yl-3-thiophenecarboxylic acid ethyl ester

> <PUBCHEM_IUPAC_NAME>
ethyl 2-[(3-ethoxycarbonyl-4-thiophen-2-ylthiophen-2-yl)carbamoylamino]-4-thiophen-2-ylthiophene-3-carboxylate

> <PUBCHEM_IUPAC_SYSTEMATIC_NAME>
ethyl 2-[(3-ethoxycarbonyl-4-thiophen-2-yl-thiophen-2-yl)carbamoylamino]-4-thiophen-2-yl-thiophene-3-carboxylate

> <PUBCHEM_IUPAC_TRADITIONAL_NAME>
2-[[3-carbethoxy-4-(2-thienyl)-2-thienyl]carbamoylamino]-4-(2-thienyl)thiophene-3-carboxylic acid ethyl ester

> <PUBCHEM_IUPAC_INCHI>
InChI=1S/C23H20N2O5S4/c1-3-29-21(26)17-13(15-7-5-9-31-15)11-33-19(17)24-23(28)25-20-18(22(27)30-4-2)14(12-34-20)16-8-6-10-32-16/h5-12H,3-4H2,1-2H3,(H2,24,25,28)

> <PUBCHEM_IUPAC_INCHIKEY>
YMGCRLXYIUHVKH-UHFFFAOYSA-N

> <PUBCHEM_XLOGP3_AA>
6.7

> <PUBCHEM_EXACT_MASS>
532.025506

> <PUBCHEM_MOLECULAR_FORMULA>
C23H20N2O5S4

> <PUBCHEM_MOLECULAR_WEIGHT>
532.6753

> <PUBCHEM_OPENEYE_CAN_SMILES>
CCOC(=O)C1=C(SC=C1C2=CC=CS2)NC(=O)NC3=C(C(=CS3)C4=CC=CS4)C(=O)OCC

> <PUBCHEM_OPENEYE_ISO_SMILES>
CCOC(=O)C1=C(SC=C1C2=CC=CS2)NC(=O)NC3=C(C(=CS3)C4=CC=CS4)C(=O)OCC

> <PUBCHEM_CACTVS_TPSA>
207

> <PUBCHEM_MONOISOTOPIC_WEIGHT>
532.025506

> <PUBCHEM_TOTAL_CHARGE>
0

> <PUBCHEM_HEAVY_ATOM_COUNT>
34

> <PUBCHEM_ATOM_DEF_STEREO_COUNT>
0

> <PUBCHEM_ATOM_UDEF_STEREO_COUNT>
0

> <PUBCHEM_BOND_DEF_STEREO_COUNT>
0

> <PUBCHEM_BOND_UDEF_STEREO_COUNT>
0

> <PUBCHEM_ISOTOPIC_ATOM_COUNT>
0

> <PUBCHEM_COMPONENT_COUNT>
1

> <PUBCHEM_CACTVS_TAUTO_COUNT>
9

> <PUBCHEM_COORDINATE_TYPE>
1

> <PUBCHEM_BONDANNOTATIONS>
1  17  8

$$$$
