32660251
  CDK     1205141041

 49 51  0  0  0  0  0  0  0  0999 V2000
    2.8660   -2.2694    0.0000 O   0  0  0  0  0  0  0  0  0  0  0  0
    6.3301   -4.2694    0.0000 O   0  0  0  0  0  0  0  0  0  0  0  0
    5.4641   -0.7694    0.0000 N   0  0  0  0  0  0  0  0  0  0  0  0
    6.3301    3.7306    0.0000 N   0  0  0  0  0  0  0  0  0  0  0  0
    6.8301    5.2694    0.0000 N   0  0  0  0  0  0  0  0  0  0  0  0
    6.3301   -0.2694    0.0000 C   0  0  2  0  0  0  0  0  0  0  0  0
    4.5981   -1.2694    0.0000 C   0  0  0  0  0  0  0  0  0  0  0  0
    6.3301    0.7306    0.0000 C   0  0  0  0  0  0  0  0  0  0  0  0
    7.1962   -0.7694    0.0000 C   0  0  0  0  0  0  0  0  0  0  0  0
    4.5981   -2.2694    0.0000 C   0  0  0  0  0  0  0  0  0  0  0  0
    5.4641    1.2306    0.0000 C   0  0  0  0  0  0  0  0  0  0  0  0
    7.1962    1.2306    0.0000 C   0  0  0  0  0  0  0  0  0  0  0  0
    3.7321   -2.7694    0.0000 C   0  0  0  0  0  0  0  0  0  0  0  0
    6.3301    2.7306    0.0000 C   0  0  0  0  0  0  0  0  0  0  0  0
    5.4641   -2.7694    0.0000 C   0  0  0  0  0  0  0  0  0  0  0  0
    5.4641    2.2306    0.0000 C   0  0  0  0  0  0  0  0  0  0  0  0
    7.1962    2.2306    0.0000 C   0  0  0  0  0  0  0  0  0  0  0  0
    5.4641   -3.7694    0.0000 C   0  0  0  0  0  0  0  0  0  0  0  0
    3.7321   -3.7694    0.0000 C   0  0  0  0  0  0  0  0  0  0  0  0
    4.5981   -4.2694    0.0000 C   0  0  0  0  0  0  0  0  0  0  0  0
    5.5211    4.3184    0.0000 C   0  0  0  0  0  0  0  0  0  0  0  0
    7.1391    4.3184    0.0000 C   0  0  0  0  0  0  0  0  0  0  0  0
    2.0000   -2.7694    0.0000 C   0  0  0  0  0  0  0  0  0  0  0  0
    5.8301    5.2694    0.0000 C   0  0  0  0  0  0  0  0  0  0  0  0
    6.3301   -5.2694    0.0000 C   0  0  0  0  0  0  0  0  0  0  0  0
    5.7932    0.0406    0.0000 H   0  0  0  0  0  0  0  0  0  0  0  0
    5.1541   -0.2325    0.0000 H   0  0  0  0  0  0  0  0  0  0  0  0
    5.7741   -1.3064    0.0000 H   0  0  0  0  0  0  0  0  0  0  0  0
    4.3860   -0.6868    0.0000 H   0  0  0  0  0  0  0  0  0  0  0  0
    3.9875   -1.3771    0.0000 H   0  0  0  0  0  0  0  0  0  0  0  0
    6.8862   -1.3064    0.0000 H   0  0  0  0  0  0  0  0  0  0  0  0
    7.7331   -1.0794    0.0000 H   0  0  0  0  0  0  0  0  0  0  0  0
    7.5062   -0.2325    0.0000 H   0  0  0  0  0  0  0  0  0  0  0  0
    4.9272    0.9206    0.0000 H   0  0  0  0  0  0  0  0  0  0  0  0
    7.7331    0.9206    0.0000 H   0  0  0  0  0  0  0  0  0  0  0  0
    6.0010   -2.4594    0.0000 H   0  0  0  0  0  0  0  0  0  0  0  0
    4.9272    2.5406    0.0000 H   0  0  0  0  0  0  0  0  0  0  0  0
    7.7331    2.5406    0.0000 H   0  0  0  0  0  0  0  0  0  0  0  0
    3.1951   -4.0794    0.0000 H   0  0  0  0  0  0  0  0  0  0  0  0
    4.5981   -4.8894    0.0000 H   0  0  0  0  0  0  0  0  0  0  0  0
    4.9315    4.1268    0.0000 H   0  0  0  0  0  0  0  0  0  0  0  0
    7.7288    4.1268    0.0000 H   0  0  0  0  0  0  0  0  0  0  0  0
    1.6900   -2.2325    0.0000 H   0  0  0  0  0  0  0  0  0  0  0  0
    1.4631   -3.0794    0.0000 H   0  0  0  0  0  0  0  0  0  0  0  0
    2.3100   -3.3064    0.0000 H   0  0  0  0  0  0  0  0  0  0  0  0
    5.4657    5.7710    0.0000 H   0  0  0  0  0  0  0  0  0  0  0  0
    5.7101   -5.2694    0.0000 H   0  0  0  0  0  0  0  0  0  0  0  0
    6.3301   -5.8894    0.0000 H   0  0  0  0  0  0  0  0  0  0  0  0
    6.9501   -5.2694    0.0000 H   0  0  0  0  0  0  0  0  0  0  0  0
  1 13  1  0  0  0  0 
  1 23  1  0  0  0  0 
  2 18  1  0  0  0  0 
  2 25  1  0  0  0  0 
  6  3  1  6  0  0  0 
  3  7  1  0  0  0  0 
  3 27  1  0  0  0  0 
  3 28  1  0  0  0  0 
  4 14  1  0  0  0  0 
  4 21  1  0  0  0  0 
  4 22  1  0  0  0  0 
  5 22  2  0  0  0  0 
  5 24  1  0  0  0  0 
  6  8  1  0  0  0  0 
  6  9  1  0  0  0  0 
  6 26  1  0  0  0  0 
  7 10  1  0  0  0  0 
  7 29  1  0  0  0  0 
  7 30  1  0  0  0  0 
  8 11  2  0  0  0  0 
  8 12  1  0  0  0  0 
  9 31  1  0  0  0  0 
  9 32  1  0  0  0  0 
  9 33  1  0  0  0  0 
 10 13  2  0  0  0  0 
 10 15  1  0  0  0  0 
 11 16  1  0  0  0  0 
 11 34  1  0  0  0  0 
 12 17  2  0  0  0  0 
 12 35  1  0  0  0  0 
 13 19  1  0  0  0  0 
 14 16  2  0  0  0  0 
 14 17  1  0  0  0  0 
 15 18  2  0  0  0  0 
 15 36  1  0  0  0  0 
 16 37  1  0  0  0  0 
 17 38  1  0  0  0  0 
 18 20  1  0  0  0  0 
 19 20  2  0  0  0  0 
 19 39  1  0  0  0  0 
 20 40  1  0  0  0  0 
 21 24  2  0  0  0  0 
 21 41  1  0  0  0  0 
 22 42  1  0  0  0  0 
 23 43  1  0  0  0  0 
 23 44  1  0  0  0  0 
 23 45  1  0  0  0  0 
 24 46  1  0  0  0  0 
 25 47  1  0  0  0  0 
 25 48  1  0  0  0  0 
 25 49  1  0  0  0  0 
M  CHG  1   3   1
M  END
> <cdk:Title>
32660251

> <cdk:Remark>
null

> <PUBCHEM_COMPOUND_CID>
32660251

> <PUBCHEM_COMPOUND_CANONICALIZED>
1

> <PUBCHEM_CACTVS_COMPLEXITY>
387

> <PUBCHEM_CACTVS_HBOND_ACCEPTOR>
3

> <PUBCHEM_CACTVS_HBOND_DONOR>
1

> <PUBCHEM_CACTVS_ROTATABLE_BOND>
7

> <PUBCHEM_CACTVS_SUBSKEYS>
AAADceB7MAAAAAAAAAAAAAAAAAAAAWAAAAAwYAAAAAAAAAAB0AAAHgAQAAAADCzBmgY/1pfMFACgAjRnZACCiC0xMqAJyIAefIiMbmLEuZuUMChu0BPI6CfwwLAOCQABAAAIAAASAAIAABAAAAAAAAAAAA==

> <PUBCHEM_IUPAC_OPENEYE_NAME>
(2,5-dimethoxyphenyl)methyl-[(1S)-1-(4-imidazol-1-ylphenyl)ethyl]ammonium

> <PUBCHEM_IUPAC_CAS_NAME>
(2,5-dimethoxyphenyl)methyl-[(1S)-1-[4-(1-imidazolyl)phenyl]ethyl]ammonium

> <PUBCHEM_IUPAC_NAME>
(2,5-dimethoxyphenyl)methyl-[(1S)-1-(4-imidazol-1-ylphenyl)ethyl]azanium

> <PUBCHEM_IUPAC_SYSTEMATIC_NAME>
(2,5-dimethoxyphenyl)methyl-[(1S)-1-(4-imidazol-1-ylphenyl)ethyl]azanium

> <PUBCHEM_IUPAC_TRADITIONAL_NAME>
(2,5-dimethoxybenzyl)-[(1S)-1-(4-imidazol-1-ylphenyl)ethyl]ammonium

> <PUBCHEM_IUPAC_INCHI>
InChI=1S/C20H23N3O2/c1-15(16-4-6-18(7-5-16)23-11-10-21-14-23)22-13-17-12-19(24-2)8-9-20(17)25-3/h4-12,14-15,22H,13H2,1-3H3/p+1/t15-/m0/s1

> <PUBCHEM_IUPAC_INCHIKEY>
NVFZKESOVFLUPR-HNNXBMFYSA-O

> <PUBCHEM_XLOGP3_AA>
2.9

> <PUBCHEM_EXACT_MASS>
338.186852

> <PUBCHEM_MOLECULAR_FORMULA>
C20H24N3O2+

> <PUBCHEM_MOLECULAR_WEIGHT>
338.42346

> <PUBCHEM_OPENEYE_CAN_SMILES>
CC(C1=CC=C(C=C1)N2C=CN=C2)[NH2+]CC3=C(C=CC(=C3)OC)OC

> <PUBCHEM_OPENEYE_ISO_SMILES>
C[C@@H](C1=CC=C(C=C1)N2C=CN=C2)[NH2+]CC3=C(C=CC(=C3)OC)OC

> <PUBCHEM_CACTVS_TPSA>
52.9

> <PUBCHEM_MONOISOTOPIC_WEIGHT>
338.186852

> <PUBCHEM_TOTAL_CHARGE>
1

> <PUBCHEM_HEAVY_ATOM_COUNT>
25

> <PUBCHEM_ATOM_DEF_STEREO_COUNT>
1

> <PUBCHEM_ATOM_UDEF_STEREO_COUNT>
0

> <PUBCHEM_BOND_DEF_STEREO_COUNT>
0

> <PUBCHEM_BOND_UDEF_STEREO_COUNT>
0

> <PUBCHEM_ISOTOPIC_ATOM_COUNT>
0

> <PUBCHEM_COMPONENT_COUNT>
1

> <PUBCHEM_CACTVS_TAUTO_COUNT>
1

> <PUBCHEM_COORDINATE_TYPE>
1

> <PUBCHEM_BONDANNOTATIONS>
10  13  8

$$$$
