55274868
  CDK     1205141041

 23 23  0  0  0  0  0  0  0  0999 V2000
    5.4641   -1.7500    0.0000 F   0  0  0  0  0  0  0  0  0  0  0  0
    2.0000   -1.7500    0.0000 F   0  0  0  0  0  0  0  0  0  0  0  0
    3.7320   -2.7500    0.0000 O   0  0  0  0  0  0  0  0  0  0  0  0
    4.5981    1.7500    0.0000 N   0  0  0  0  0  0  0  0  0  0  0  0
    2.8660    2.7500    0.0000 N   0  0  0  0  0  0  0  0  0  0  0  0
    3.7320    1.2500    0.0000 C   0  0  1  0  0  0  0  0  0  0  0  0
    3.7320    0.2500    0.0000 C   0  0  0  0  0  0  0  0  0  0  0  0
    2.8660    1.7500    0.0000 C   0  0  0  0  0  0  0  0  0  0  0  0
    2.8660   -0.2500    0.0000 C   0  0  0  0  0  0  0  0  0  0  0  0
    4.5981   -0.2500    0.0000 C   0  0  0  0  0  0  0  0  0  0  0  0
    4.5981   -1.2500    0.0000 C   0  0  0  0  0  0  0  0  0  0  0  0
    2.8660   -1.2500    0.0000 C   0  0  0  0  0  0  0  0  0  0  0  0
    3.7320   -1.7500    0.0000 C   0  0  0  0  0  0  0  0  0  0  0  0
    3.7320    1.8700    0.0000 H   0  0  0  0  0  0  0  0  0  0  0  0
    2.2554    1.8577    0.0000 H   0  0  0  0  0  0  0  0  0  0  0  0
    2.6540    1.1674    0.0000 H   0  0  0  0  0  0  0  0  0  0  0  0
    2.3291    0.0600    0.0000 H   0  0  0  0  0  0  0  0  0  0  0  0
    5.1350    0.0600    0.0000 H   0  0  0  0  0  0  0  0  0  0  0  0
    4.5981    2.3700    0.0000 H   0  0  0  0  0  0  0  0  0  0  0  0
    5.1350    1.4400    0.0000 H   0  0  0  0  0  0  0  0  0  0  0  0
    2.3291    3.0600    0.0000 H   0  0  0  0  0  0  0  0  0  0  0  0
    3.4030    3.0600    0.0000 H   0  0  0  0  0  0  0  0  0  0  0  0
    3.1951   -3.0600    0.0000 H   0  0  0  0  0  0  0  0  0  0  0  0
  1 11  1  0  0  0  0 
  2 12  1  0  0  0  0 
  3 13  1  0  0  0  0 
  3 23  1  0  0  0  0 
  6  4  1  1  0  0  0 
  4 19  1  0  0  0  0 
  4 20  1  0  0  0  0 
  5  8  1  0  0  0  0 
  5 21  1  0  0  0  0 
  5 22  1  0  0  0  0 
  6  7  1  0  0  0  0 
  6  8  1  0  0  0  0 
  6 14  1  0  0  0  0 
  7  9  2  0  0  0  0 
  7 10  1  0  0  0  0 
  8 15  1  0  0  0  0 
  8 16  1  0  0  0  0 
  9 12  1  0  0  0  0 
  9 17  1  0  0  0  0 
 10 11  2  0  0  0  0 
 10 18  1  0  0  0  0 
 11 13  1  0  0  0  0 
 12 13  2  0  0  0  0 
M  END
> <cdk:Title>
55274868

> <cdk:Remark>
null

> <PUBCHEM_COMPOUND_CID>
55274868

> <PUBCHEM_COMPOUND_CANONICALIZED>
1

> <PUBCHEM_CACTVS_COMPLEXITY>
158

> <PUBCHEM_CACTVS_HBOND_ACCEPTOR>
5

> <PUBCHEM_CACTVS_HBOND_DONOR>
3

> <PUBCHEM_CACTVS_ROTATABLE_BOND>
2

> <PUBCHEM_CACTVS_SUBSKEYS>
AAADccBzIYAAAAAAAAAAAAAAAAAAAAAAAAAwAAAAAAAAAAABAAAAHwAQCAAADCzBmAwwBoBAAgCAAiBCAACCAAAgIAAAiIAEDIgIZiKCkROAcABk0BEImAeQ0IEOIAAAAAAAAABAAAAAAAAAAAAAAAAAAA==

> <PUBCHEM_IUPAC_OPENEYE_NAME>
4-[(1S)-1,2-diaminoethyl]-2,6-difluoro-phenol

> <PUBCHEM_IUPAC_CAS_NAME>
4-[(1S)-1,2-diaminoethyl]-2,6-difluorophenol

> <PUBCHEM_IUPAC_NAME>
4-[(1S)-1,2-diaminoethyl]-2,6-difluorophenol

> <PUBCHEM_IUPAC_SYSTEMATIC_NAME>
4-[(1S)-1,2-bis(azanyl)ethyl]-2,6-bis(fluoranyl)phenol

> <PUBCHEM_IUPAC_TRADITIONAL_NAME>
4-[(1S)-1,2-diaminoethyl]-2,6-difluoro-phenol

> <PUBCHEM_IUPAC_INCHI>
InChI=1S/C8H10F2N2O/c9-5-1-4(7(12)3-11)2-6(10)8(5)13/h1-2,7,13H,3,11-12H2/t7-/m1/s1

> <PUBCHEM_IUPAC_INCHIKEY>
IORBVKXPJIJHDQ-SSDOTTSWSA-N

> <PUBCHEM_XLOGP3_AA>
-0.3

> <PUBCHEM_EXACT_MASS>
188.076119

> <PUBCHEM_MOLECULAR_FORMULA>
C8H10F2N2O

> <PUBCHEM_MOLECULAR_WEIGHT>
188.174606

> <PUBCHEM_OPENEYE_CAN_SMILES>
C1=C(C=C(C(=C1F)O)F)C(CN)N

> <PUBCHEM_OPENEYE_ISO_SMILES>
C1=C(C=C(C(=C1F)O)F)[C@@H](CN)N

> <PUBCHEM_CACTVS_TPSA>
72.3

> <PUBCHEM_MONOISOTOPIC_WEIGHT>
188.076119

> <PUBCHEM_TOTAL_CHARGE>
0

> <PUBCHEM_HEAVY_ATOM_COUNT>
13

> <PUBCHEM_ATOM_DEF_STEREO_COUNT>
1

> <PUBCHEM_ATOM_UDEF_STEREO_COUNT>
0

> <PUBCHEM_BOND_DEF_STEREO_COUNT>
0

> <PUBCHEM_BOND_UDEF_STEREO_COUNT>
0

> <PUBCHEM_ISOTOPIC_ATOM_COUNT>
0

> <PUBCHEM_COMPONENT_COUNT>
1

> <PUBCHEM_CACTVS_TAUTO_COUNT>
2

> <PUBCHEM_COORDINATE_TYPE>
1

> <PUBCHEM_BONDANNOTATIONS>
10  11  8

$$$$
