56370184
  CDK     1205141041

 60 62  0  0  0  0  0  0  0  0999 V2000
    5.4641    0.0194    0.0000 O   0  0  0  0  0  0  0  0  0  0  0  0
    4.5981    5.5194    0.0000 O   0  0  0  0  0  0  0  0  0  0  0  0
    2.8660    4.5194    0.0000 O   0  0  0  0  0  0  0  0  0  0  0  0
    3.7320   -2.9806    0.0000 O   0  0  0  0  0  0  0  0  0  0  0  0
    5.4071   -5.0684    0.0000 O   0  0  0  0  0  0  0  0  0  0  0  0
    7.1962    0.0194    0.0000 N   0  0  0  0  0  0  0  0  0  0  0  0
    5.4641   -2.9806    0.0000 N   0  0  0  0  0  0  0  0  0  0  0  0
    7.1962    1.0194    0.0000 C   0  0  3  0  0  0  0  0  0  0  0  0
    8.0622    1.5194    0.0000 C   0  0  0  0  0  0  0  0  0  0  0  0
    8.9282    1.0194    0.0000 C   0  0  0  0  0  0  0  0  0  0  0  0
    8.0622   -0.4806    0.0000 C   0  0  0  0  0  0  0  0  0  0  0  0
    8.9282    0.0194    0.0000 C   0  0  0  0  0  0  0  0  0  0  0  0
    6.3301    1.5194    0.0000 C   0  0  0  0  0  0  0  0  0  0  0  0
    6.3301    2.5194    0.0000 C   0  0  0  0  0  0  0  0  0  0  0  0
    6.3301   -0.4806    0.0000 C   0  0  0  0  0  0  0  0  0  0  0  0
    6.3301   -1.4806    0.0000 C   0  0  0  0  0  0  0  0  0  0  0  0
    5.4641    3.0194    0.0000 C   0  0  0  0  0  0  0  0  0  0  0  0
    5.4641   -1.9806    0.0000 C   0  0  0  0  0  0  0  0  0  0  0  0
    5.4641    4.0194    0.0000 C   0  0  0  0  0  0  0  0  0  0  0  0
    4.5981    2.5194    0.0000 C   0  0  0  0  0  0  0  0  0  0  0  0
    4.5981    4.5194    0.0000 C   0  0  0  0  0  0  0  0  0  0  0  0
    3.7320    3.0194    0.0000 C   0  0  0  0  0  0  0  0  0  0  0  0
    3.7320    4.0194    0.0000 C   0  0  0  0  0  0  0  0  0  0  0  0
    4.5981   -3.4806    0.0000 C   0  0  0  0  0  0  0  0  0  0  0  0
    4.5981   -4.4806    0.0000 C   0  0  0  0  0  0  0  0  0  0  0  0
    5.4641    6.0194    0.0000 C   0  0  0  0  0  0  0  0  0  0  0  0
    2.0000    4.0194    0.0000 C   0  0  0  0  0  0  0  0  0  0  0  0
    3.7891   -5.0684    0.0000 C   0  0  0  0  0  0  0  0  0  0  0  0
    4.0981   -6.0194    0.0000 C   0  0  0  0  0  0  0  0  0  0  0  0
    5.0981   -6.0194    0.0000 C   0  0  0  0  0  0  0  0  0  0  0  0
    6.6592    0.7094    0.0000 H   0  0  0  0  0  0  0  0  0  0  0  0
    8.4607    1.9944    0.0000 H   0  0  0  0  0  0  0  0  0  0  0  0
    7.6636    1.9944    0.0000 H   0  0  0  0  0  0  0  0  0  0  0  0
    9.5388    0.9118    0.0000 H   0  0  0  0  0  0  0  0  0  0  0  0
    9.1403    1.6020    0.0000 H   0  0  0  0  0  0  0  0  0  0  0  0
    7.6636   -0.9555    0.0000 H   0  0  0  0  0  0  0  0  0  0  0  0
    8.4607   -0.9555    0.0000 H   0  0  0  0  0  0  0  0  0  0  0  0
    9.1403   -0.5632    0.0000 H   0  0  0  0  0  0  0  0  0  0  0  0
    9.5388    0.1271    0.0000 H   0  0  0  0  0  0  0  0  0  0  0  0
    5.7196    1.6271    0.0000 H   0  0  0  0  0  0  0  0  0  0  0  0
    6.1181    0.9368    0.0000 H   0  0  0  0  0  0  0  0  0  0  0  0
    6.9407    2.4118    0.0000 H   0  0  0  0  0  0  0  0  0  0  0  0
    6.5422    3.1020    0.0000 H   0  0  0  0  0  0  0  0  0  0  0  0
    6.5422   -2.0632    0.0000 H   0  0  0  0  0  0  0  0  0  0  0  0
    6.9407   -1.3729    0.0000 H   0  0  0  0  0  0  0  0  0  0  0  0
    5.2520   -1.3980    0.0000 H   0  0  0  0  0  0  0  0  0  0  0  0
    4.8535   -2.0882    0.0000 H   0  0  0  0  0  0  0  0  0  0  0  0
    6.0010    4.3294    0.0000 H   0  0  0  0  0  0  0  0  0  0  0  0
    4.5981    1.8994    0.0000 H   0  0  0  0  0  0  0  0  0  0  0  0
    6.0010   -3.2906    0.0000 H   0  0  0  0  0  0  0  0  0  0  0  0
    3.1951    2.7094    0.0000 H   0  0  0  0  0  0  0  0  0  0  0  0
    5.7741    5.4825    0.0000 H   0  0  0  0  0  0  0  0  0  0  0  0
    6.0010    6.3294    0.0000 H   0  0  0  0  0  0  0  0  0  0  0  0
    5.1541    6.5564    0.0000 H   0  0  0  0  0  0  0  0  0  0  0  0
    1.6900    4.5564    0.0000 H   0  0  0  0  0  0  0  0  0  0  0  0
    1.4631    3.7094    0.0000 H   0  0  0  0  0  0  0  0  0  0  0  0
    2.3100    3.4825    0.0000 H   0  0  0  0  0  0  0  0  0  0  0  0
    3.1994   -4.8768    0.0000 H   0  0  0  0  0  0  0  0  0  0  0  0
    3.7336   -6.5210    0.0000 H   0  0  0  0  0  0  0  0  0  0  0  0
    5.4625   -6.5210    0.0000 H   0  0  0  0  0  0  0  0  0  0  0  0
  1 15  2  0  0  0  0 
  2 21  1  0  0  0  0 
  2 26  1  0  0  0  0 
  3 23  1  0  0  0  0 
  3 27  1  0  0  0  0 
  4 24  2  0  0  0  0 
  5 25  1  0  0  0  0 
  5 30  1  0  0  0  0 
  6  8  1  0  0  0  0 
  6 11  1  0  0  0  0 
  6 15  1  0  0  0  0 
  7 18  1  0  0  0  0 
  7 24  1  0  0  0  0 
  7 50  1  0  0  0  0 
  8  9  1  0  0  0  0 
  8 13  1  0  0  0  0 
  8 31  1  0  0  0  0 
  9 10  1  0  0  0  0 
  9 32  1  0  0  0  0 
  9 33  1  0  0  0  0 
 10 12  1  0  0  0  0 
 10 34  1  0  0  0  0 
 10 35  1  0  0  0  0 
 11 12  1  0  0  0  0 
 11 36  1  0  0  0  0 
 11 37  1  0  0  0  0 
 12 38  1  0  0  0  0 
 12 39  1  0  0  0  0 
 13 14  1  0  0  0  0 
 13 40  1  0  0  0  0 
 13 41  1  0  0  0  0 
 14 17  1  0  0  0  0 
 14 42  1  0  0  0  0 
 14 43  1  0  0  0  0 
 15 16  1  0  0  0  0 
 16 18  1  0  0  0  0 
 16 44  1  0  0  0  0 
 16 45  1  0  0  0  0 
 17 19  2  0  0  0  0 
 17 20  1  0  0  0  0 
 18 46  1  0  0  0  0 
 18 47  1  0  0  0  0 
 19 21  1  0  0  0  0 
 19 48  1  0  0  0  0 
 20 22  2  0  0  0  0 
 20 49  1  0  0  0  0 
 21 23  2  0  0  0  0 
 22 23  1  0  0  0  0 
 22 51  1  0  0  0  0 
 24 25  1  0  0  0  0 
 25 28  2  0  0  0  0 
 26 52  1  0  0  0  0 
 26 53  1  0  0  0  0 
 26 54  1  0  0  0  0 
 27 55  1  0  0  0  0 
 27 56  1  0  0  0  0 
 27 57  1  0  0  0  0 
 28 29  1  0  0  0  0 
 28 58  1  0  0  0  0 
 29 30  2  0  0  0  0 
 29 59  1  0  0  0  0 
 30 60  1  0  0  0  0 
M  END
> <cdk:Title>
56370184

> <cdk:Remark>
null

> <PUBCHEM_COMPOUND_CID>
56370184

> <PUBCHEM_COMPOUND_CANONICALIZED>
1

> <PUBCHEM_CACTVS_COMPLEXITY>
558

> <PUBCHEM_CACTVS_HBOND_ACCEPTOR>
5

> <PUBCHEM_CACTVS_HBOND_DONOR>
1

> <PUBCHEM_CACTVS_ROTATABLE_BOND>
9

> <PUBCHEM_CACTVS_SUBSKEYS>
AAADceB7OAAAAAAAAAAAAAAAAAAAASAAAAA8QAAAAAAAAAABwAAAHgAQAAAADCzhmAYyBoPABECIAqlSkAKCCAAkIAAIiIHOjMgPJjqE9T+HOSrk1hGaqYeY1/IOIAABAAAAQABAAAIAAACAAAAAAAAAAA==

> <PUBCHEM_IUPAC_OPENEYE_NAME>
N-[3-[2-[2-(3,4-dimethoxyphenyl)ethyl]-1-piperidyl]-3-oxo-propyl]furan-2-carboxamide

> <PUBCHEM_IUPAC_CAS_NAME>
N-[3-[2-[2-(3,4-dimethoxyphenyl)ethyl]-1-piperidinyl]-3-oxopropyl]-2-furancarboxamide

> <PUBCHEM_IUPAC_NAME>
N-[3-[2-[2-(3,4-dimethoxyphenyl)ethyl]piperidin-1-yl]-3-oxopropyl]furan-2-carboxamide

> <PUBCHEM_IUPAC_SYSTEMATIC_NAME>
N-[3-[2-[2-(3,4-dimethoxyphenyl)ethyl]piperidin-1-yl]-3-oxidanylidene-propyl]furan-2-carboxamide

> <PUBCHEM_IUPAC_TRADITIONAL_NAME>
N-[3-(2-homoveratrylpiperidino)-3-keto-propyl]-2-furamide

> <PUBCHEM_IUPAC_INCHI>
InChI=1S/C23H30N2O5/c1-28-19-11-9-17(16-21(19)29-2)8-10-18-6-3-4-14-25(18)22(26)12-13-24-23(27)20-7-5-15-30-20/h5,7,9,11,15-16,18H,3-4,6,8,10,12-14H2,1-2H3,(H,24,27)

> <PUBCHEM_IUPAC_INCHIKEY>
HTBSEFMXDSZRPF-UHFFFAOYSA-N

> <PUBCHEM_XLOGP3_AA>
3.2

> <PUBCHEM_EXACT_MASS>
414.215472

> <PUBCHEM_MOLECULAR_FORMULA>
C23H30N2O5

> <PUBCHEM_MOLECULAR_WEIGHT>
414.4947

> <PUBCHEM_OPENEYE_CAN_SMILES>
COC1=C(C=C(C=C1)CCC2CCCCN2C(=O)CCNC(=O)C3=CC=CO3)OC

> <PUBCHEM_OPENEYE_ISO_SMILES>
COC1=C(C=C(C=C1)CCC2CCCCN2C(=O)CCNC(=O)C3=CC=CO3)OC

> <PUBCHEM_CACTVS_TPSA>
81

> <PUBCHEM_MONOISOTOPIC_WEIGHT>
414.215472

> <PUBCHEM_TOTAL_CHARGE>
0

> <PUBCHEM_HEAVY_ATOM_COUNT>
30

> <PUBCHEM_ATOM_DEF_STEREO_COUNT>
0

> <PUBCHEM_ATOM_UDEF_STEREO_COUNT>
1

> <PUBCHEM_BOND_DEF_STEREO_COUNT>
0

> <PUBCHEM_BOND_UDEF_STEREO_COUNT>
0

> <PUBCHEM_ISOTOPIC_ATOM_COUNT>
0

> <PUBCHEM_COMPONENT_COUNT>
1

> <PUBCHEM_CACTVS_TAUTO_COUNT>
2

> <PUBCHEM_COORDINATE_TYPE>
1

> <PUBCHEM_BONDANNOTATIONS>
17  19  8

$$$$
