6133607
  CDK     1205141041

 66 69  0  0  0  0  0  0  0  0999 V2000
   12.1521   -1.9173    0.0000 O   0  0  0  0  0  0  0  0  0  0  0  0
    8.6078    0.8874    0.0000 O   0  0  0  0  0  0  0  0  0  0  0  0
    6.2524   -2.7286    0.0000 O   0  0  0  0  0  0  0  0  0  0  0  0
    8.3804   -2.2762    0.0000 O   0  0  0  0  0  0  0  0  0  0  0  0
    4.9262    0.4122    0.0000 O   0  0  0  0  0  0  0  0  0  0  0  0
    6.1591   -0.9490    0.0000 N   0  0  0  0  0  0  0  0  0  0  0  0
    3.5823   -1.5490    0.0000 N   0  0  0  0  0  0  0  0  0  0  0  0
    6.8283   -0.2059    0.0000 C   0  0  3  0  0  0  0  0  0  0  0  0
    7.7418   -0.6126    0.0000 C   0  0  0  0  0  0  0  0  0  0  0  0
    5.1646   -0.8445    0.0000 C   0  0  0  0  0  0  0  0  0  0  0  0
    6.6204    0.7723    0.0000 C   0  0  0  0  0  0  0  0  0  0  0  0
    4.5768   -1.6535    0.0000 C   0  0  0  0  0  0  0  0  0  0  0  0
    6.6591   -1.8150    0.0000 C   0  0  0  0  0  0  0  0  0  0  0  0
    7.6373   -1.6071    0.0000 C   0  0  0  0  0  0  0  0  0  0  0  0
    8.6078   -0.1126    0.0000 C   0  0  0  0  0  0  0  0  0  0  0  0
   12.1521   -0.3079    0.0000 C   0  0  0  0  0  0  0  0  0  0  0  0
   11.2059   -0.6126    0.0000 C   0  0  0  0  0  0  0  0  0  0  0  0
    9.4739   -0.6126    0.0000 C   0  0  0  0  0  0  0  0  0  0  0  0
   12.7357   -1.1126    0.0000 C   0  0  3  0  0  0  0  0  0  0  0  0
   11.2059   -1.6126    0.0000 C   0  0  0  0  0  0  0  0  0  0  0  0
   10.3399   -0.1126    0.0000 C   0  0  0  0  0  0  0  0  0  0  0  0
    5.6693    1.0813    0.0000 C   0  0  0  0  0  0  0  0  0  0  0  0
    7.3635    1.4414    0.0000 C   0  0  0  0  0  0  0  0  0  0  0  0
    2.9945   -2.3580    0.0000 C   0  0  0  0  0  0  0  0  0  0  0  0
    3.1756   -0.6354    0.0000 C   0  0  0  0  0  0  0  0  0  0  0  0
    9.4739   -1.6126    0.0000 C   0  0  0  0  0  0  0  0  0  0  0  0
   10.3399   -2.1126    0.0000 C   0  0  0  0  0  0  0  0  0  0  0  0
   13.7357   -1.1126    0.0000 C   0  0  0  0  0  0  0  0  0  0  0  0
    5.4614    2.0594    0.0000 C   0  0  0  0  0  0  0  0  0  0  0  0
    7.1556    2.4196    0.0000 C   0  0  0  0  0  0  0  0  0  0  0  0
    2.1810   -0.5309    0.0000 C   0  0  0  0  0  0  0  0  0  0  0  0
    2.0000   -2.2535    0.0000 C   0  0  0  0  0  0  0  0  0  0  0  0
    6.2045    2.7286    0.0000 C   0  0  0  0  0  0  0  0  0  0  0  0
    3.9751    0.7212    0.0000 C   0  0  0  0  0  0  0  0  0  0  0  0
    6.2294   -0.0454    0.0000 H   0  0  0  0  0  0  0  0  0  0  0  0
    5.3355   -0.2485    0.0000 H   0  0  0  0  0  0  0  0  0  0  0  0
    4.6074   -0.5727    0.0000 H   0  0  0  0  0  0  0  0  0  0  0  0
    4.4059   -2.2495    0.0000 H   0  0  0  0  0  0  0  0  0  0  0  0
    5.1341   -1.9253    0.0000 H   0  0  0  0  0  0  0  0  0  0  0  0
   12.6895    0.0014    0.0000 H   0  0  0  0  0  0  0  0  0  0  0  0
   11.9011    0.2590    0.0000 H   0  0  0  0  0  0  0  0  0  0  0  0
   13.0175   -1.6649    0.0000 H   0  0  0  0  0  0  0  0  0  0  0  0
   10.3399    0.5074    0.0000 H   0  0  0  0  0  0  0  0  0  0  0  0
    7.9532    1.2498    0.0000 H   0  0  0  0  0  0  0  0  0  0  0  0
    2.8236   -2.9540    0.0000 H   0  0  0  0  0  0  0  0  0  0  0  0
    3.5518   -2.6298    0.0000 H   0  0  0  0  0  0  0  0  0  0  0  0
    3.7772   -0.4854    0.0000 H   0  0  0  0  0  0  0  0  0  0  0  0
    3.1323   -0.0169    0.0000 H   0  0  0  0  0  0  0  0  0  0  0  0
    8.9369   -1.9226    0.0000 H   0  0  0  0  0  0  0  0  0  0  0  0
   10.3399   -2.7326    0.0000 H   0  0  0  0  0  0  0  0  0  0  0  0
   13.7357   -1.7326    0.0000 H   0  0  0  0  0  0  0  0  0  0  0  0
   14.3557   -1.1126    0.0000 H   0  0  0  0  0  0  0  0  0  0  0  0
   13.7357   -0.4926    0.0000 H   0  0  0  0  0  0  0  0  0  0  0  0
    4.8717    2.2510    0.0000 H   0  0  0  0  0  0  0  0  0  0  0  0
    7.6163    2.8344    0.0000 H   0  0  0  0  0  0  0  0  0  0  0  0
    2.2459    0.0857    0.0000 H   0  0  0  0  0  0  0  0  0  0  0  0
    1.5644   -0.4661    0.0000 H   0  0  0  0  0  0  0  0  0  0  0  0
    2.1162   -1.1475    0.0000 H   0  0  0  0  0  0  0  0  0  0  0  0
    2.0648   -1.6368    0.0000 H   0  0  0  0  0  0  0  0  0  0  0  0
    1.3834   -2.1886    0.0000 H   0  0  0  0  0  0  0  0  0  0  0  0
    1.9352   -2.8701    0.0000 H   0  0  0  0  0  0  0  0  0  0  0  0
    9.1448    1.1974    0.0000 H   0  0  0  0  0  0  0  0  0  0  0  0
    6.0756    3.3350    0.0000 H   0  0  0  0  0  0  0  0  0  0  0  0
    4.1667    1.3108    0.0000 H   0  0  0  0  0  0  0  0  0  0  0  0
    3.3854    0.9128    0.0000 H   0  0  0  0  0  0  0  0  0  0  0  0
    3.7835    0.1315    0.0000 H   0  0  0  0  0  0  0  0  0  0  0  0
  1 19  1  0  0  0  0 
  1 20  1  0  0  0  0 
  2 15  1  0  0  0  0 
  2 62  1  0  0  0  0 
  3 13  2  0  0  0  0 
  4 14  2  0  0  0  0 
  5 22  1  0  0  0  0 
  5 34  1  0  0  0  0 
  6  8  1  0  0  0  0 
  6 10  1  0  0  0  0 
  6 13  1  0  0  0  0 
  7 12  1  0  0  0  0 
  7 24  1  0  0  0  0 
  7 25  1  0  0  0  0 
  8  9  1  0  0  0  0 
  8 11  1  0  0  0  0 
  8 35  1  0  0  0  0 
  9 14  1  0  0  0  0 
  9 15  2  0  0  0  0 
 10 12  1  0  0  0  0 
 10 36  1  0  0  0  0 
 10 37  1  0  0  0  0 
 11 22  1  0  0  0  0 
 11 23  2  0  0  0  0 
 12 38  1  0  0  0  0 
 12 39  1  0  0  0  0 
 13 14  1  0  0  0  0 
 15 18  1  0  0  0  0 
 16 17  1  0  0  0  0 
 16 19  1  0  0  0  0 
 16 40  1  0  0  0  0 
 16 41  1  0  0  0  0 
 17 20  2  0  0  0  0 
 17 21  1  0  0  0  0 
 18 21  2  0  0  0  0 
 18 26  1  0  0  0  0 
 19 28  1  0  0  0  0 
 19 42  1  0  0  0  0 
 20 27  1  0  0  0  0 
 21 43  1  0  0  0  0 
 22 29  2  0  0  0  0 
 23 30  1  0  0  0  0 
 23 44  1  0  0  0  0 
 24 32  1  0  0  0  0 
 24 45  1  0  0  0  0 
 24 46  1  0  0  0  0 
 25 31  1  0  0  0  0 
 25 47  1  0  0  0  0 
 25 48  1  0  0  0  0 
 26 27  2  0  0  0  0 
 26 49  1  0  0  0  0 
 27 50  1  0  0  0  0 
 28 51  1  0  0  0  0 
 28 52  1  0  0  0  0 
 28 53  1  0  0  0  0 
 29 33  1  0  0  0  0 
 29 54  1  0  0  0  0 
 30 33  2  0  0  0  0 
 30 55  1  0  0  0  0 
 31 56  1  0  0  0  0 
 31 57  1  0  0  0  0 
 31 58  1  0  0  0  0 
 32 59  1  0  0  0  0 
 32 60  1  0  0  0  0 
 32 61  1  0  0  0  0 
 33 63  1  0  0  0  0 
 34 64  1  0  0  0  0 
 34 65  1  0  0  0  0 
 34 66  1  0  0  0  0 
M  END
> <cdk:Title>
6133607

> <cdk:Remark>
null

> <PUBCHEM_COMPOUND_CID>
6133607

> <PUBCHEM_COMPOUND_CANONICALIZED>
1

> <PUBCHEM_CACTVS_COMPLEXITY>
779

> <PUBCHEM_CACTVS_HBOND_ACCEPTOR>
6

> <PUBCHEM_CACTVS_HBOND_DONOR>
1

> <PUBCHEM_CACTVS_ROTATABLE_BOND>
8

> <PUBCHEM_CACTVS_SUBSKEYS>
AAADcfB7OAAAAAAAAAAAAAAAAAAAAWJAAAAwYAAAAAAAAEgBQAAAHgAACAAADDzhmAYyBoMABgCIAqFSEACCCAAgIAAIiAGODMgMZjqEsTuWeCjmxhGIuQec7PzOIAACAAAIAABAAAQAABAAAAAAAAAAAA==

> <PUBCHEM_IUPAC_OPENEYE_NAME>
(4E)-1-[2-(diethylamino)ethyl]-4-[hydroxy-(2-methyl-2,3-dihydrobenzofuran-5-yl)methylene]-5-(2-methoxyphenyl)pyrrolidine-2,3-dione

> <PUBCHEM_IUPAC_CAS_NAME>
(4E)-1-[2-(diethylamino)ethyl]-4-[hydroxy-(2-methyl-2,3-dihydrobenzofuran-5-yl)methylidene]-5-(2-methoxyphenyl)pyrrolidine-2,3-dione

> <PUBCHEM_IUPAC_NAME>
(4E)-1-[2-(diethylamino)ethyl]-4-[hydroxy-(2-methyl-2,3-dihydro-1-benzofuran-5-yl)methylidene]-5-(2-methoxyphenyl)pyrrolidine-2,3-dione

> <PUBCHEM_IUPAC_SYSTEMATIC_NAME>
(4E)-1-[2-(diethylamino)ethyl]-5-(2-methoxyphenyl)-4-[(2-methyl-2,3-dihydro-1-benzofuran-5-yl)-oxidanyl-methylidene]pyrrolidine-2,3-dione

> <PUBCHEM_IUPAC_TRADITIONAL_NAME>
(4E)-1-[2-(diethylamino)ethyl]-4-[hydroxy-(2-methylcoumaran-5-yl)methylene]-5-(2-methoxyphenyl)pyrrolidine-2,3-quinone

> <PUBCHEM_IUPAC_INCHI>
InChI=1S/C27H32N2O5/c1-5-28(6-2)13-14-29-24(20-9-7-8-10-22(20)33-4)23(26(31)27(29)32)25(30)18-11-12-21-19(16-18)15-17(3)34-21/h7-12,16-17,24,30H,5-6,13-15H2,1-4H3/b25-23+

> <PUBCHEM_IUPAC_INCHIKEY>
ZBMAVYYLNCNYNL-WJTDDFOZSA-N

> <PUBCHEM_XLOGP3_AA>
4.1

> <PUBCHEM_EXACT_MASS>
464.231122

> <PUBCHEM_MOLECULAR_FORMULA>
C27H32N2O5

> <PUBCHEM_MOLECULAR_WEIGHT>
464.55338

> <PUBCHEM_OPENEYE_CAN_SMILES>
CCN(CC)CCN1C(C(=C(C2=CC3=C(C=C2)OC(C3)C)O)C(=O)C1=O)C4=CC=CC=C4OC

> <PUBCHEM_OPENEYE_ISO_SMILES>
CCN(CC)CCN1C(/C(=C(/C2=CC3=C(C=C2)OC(C3)C)\O)/C(=O)C1=O)C4=CC=CC=C4OC

> <PUBCHEM_CACTVS_TPSA>
79.3

> <PUBCHEM_MONOISOTOPIC_WEIGHT>
464.231122

> <PUBCHEM_TOTAL_CHARGE>
0

> <PUBCHEM_HEAVY_ATOM_COUNT>
34

> <PUBCHEM_ATOM_DEF_STEREO_COUNT>
0

> <PUBCHEM_ATOM_UDEF_STEREO_COUNT>
2

> <PUBCHEM_BOND_DEF_STEREO_COUNT>
1

> <PUBCHEM_BOND_UDEF_STEREO_COUNT>
0

> <PUBCHEM_ISOTOPIC_ATOM_COUNT>
0

> <PUBCHEM_COMPONENT_COUNT>
1

> <PUBCHEM_CACTVS_TAUTO_COUNT>
3

> <PUBCHEM_COORDINATE_TYPE>
1

> <PUBCHEM_BONDANNOTATIONS>
11  22  8

$$$$
