
  CDK     0202151413

 16 16  0  0  0  0  0  0  0  0999 V2000
    6.7320    2.5955    0.0000 S   0  0  0  0  0  0  0  0  0  0  0  0
    5.0000    1.5955    0.0000 O   0  0  0  0  0  0  0  0  0  0  0  0
    7.7320    2.5955    0.0000 O   0  0  0  0  0  0  0  0  0  0  0  0
    5.7320    2.5955    0.0000 O   0  0  0  0  0  0  0  0  0  0  0  0
    5.3660   -0.7705    0.0000 N   0  0  0  0  0  0  0  0  0  0  0  0
    6.7320    3.5955    0.0000 N   0  0  0  0  0  0  0  0  0  0  0  0
    6.7320    1.5955    0.0000 C   0  0  0  0  0  0  0  0  0  0  0  0
    5.8660    1.0955    0.0000 C   0  0  0  0  0  0  0  0  0  0  0  0
    5.8660    0.0955    0.0000 C   0  0  0  0  0  0  0  0  0  0  0  0
    7.5981    0.0955    0.0000 C   0  0  0  0  0  0  0  0  0  0  0  0
    7.5981    1.0955    0.0000 C   0  0  0  0  0  0  0  0  0  0  0  0
    6.7320   -0.4045    0.0000 C   0  0  0  0  0  0  0  0  0  0  0  0
    4.0000    1.5956    0.0000 C   0  0  0  0  0  0  0  0  0  0  0  0
    5.8661   -1.6365    0.0000 C   0  0  0  0  0  0  0  0  0  0  0  0
    3.5000    2.4616    0.0000 C   0  0  0  0  0  0  0  0  0  0  0  0
    3.5000    0.7295    0.0000 C   0  0  0  0  0  0  0  0  0  0  0  0
  1  3  1  0  0  0  0 
  1  4  1  0  0  0  0 
  1  6  1  0  0  0  0 
  1  7  1  0  0  0  0 
  2  8  1  0  0  0  0 
  2 13  1  0  0  0  0 
  5  9  1  0  0  0  0 
  5 14  1  0  0  0  0 
  7  8  1  0  0  0  0 
  7 11  1  0  0  0  0 
  8  9  1  0  0  0  0 
  9 12  1  0  0  0  0 
 10 11  1  0  0  0  0 
 10 12  1  0  0  0  0 
 13 15  1  0  0  0  0 
 13 16  1  0  0  0  0 
M  END
> <PUBCHEM_COMPOUND_CID>
57247322

$$$$
