40704817
  CDK     0104150955

 51 54  0  0  0  0  0  0  0  0999 V2000
    5.5116    2.7615    0.0000 O   0  0  0  0  0  0  0  0  0  0  0  0
    2.8660    3.1682    0.0000 O   0  0  0  0  0  0  0  0  0  0  0  0
   10.5656    2.1730    0.0000 O   0  0  0  0  0  0  0  0  0  0  0  0
    3.7320    1.6682    0.0000 N   0  0  0  0  0  0  0  0  0  0  0  0
    2.8660   -2.8318    0.0000 N   0  0  0  0  0  0  0  0  0  0  0  0
    2.3660   -4.3706    0.0000 N   0  0  0  0  0  0  0  0  0  0  0  0
    2.8660    1.1682    0.0000 C   0  0  1  0  0  0  0  0  0  0  0  0
    2.8660    0.1682    0.0000 C   0  0  0  0  0  0  0  0  0  0  0  0
    2.0000    1.6682    0.0000 C   0  0  0  0  0  0  0  0  0  0  0  0
    3.7320   -0.3318    0.0000 C   0  0  0  0  0  0  0  0  0  0  0  0
    2.0000   -0.3318    0.0000 C   0  0  0  0  0  0  0  0  0  0  0  0
    2.8660   -1.8318    0.0000 C   0  0  0  0  0  0  0  0  0  0  0  0
    3.7320   -1.3318    0.0000 C   0  0  0  0  0  0  0  0  0  0  0  0
    2.0000   -1.3318    0.0000 C   0  0  0  0  0  0  0  0  0  0  0  0
    3.7320    2.6682    0.0000 C   0  0  0  0  0  0  0  0  0  0  0  0
    4.5981    3.1682    0.0000 C   0  0  0  0  0  0  0  0  0  0  0  0
    6.1808    3.5046    0.0000 C   0  0  0  0  0  0  0  0  0  0  0  0
    7.1753    3.4001    0.0000 C   0  0  0  0  0  0  0  0  0  0  0  0
    4.7026    4.1627    0.0000 C   0  0  0  0  0  0  0  0  0  0  0  0
    5.6808    4.3706    0.0000 C   0  0  0  0  0  0  0  0  0  0  0  0
    7.5820    2.4865    0.0000 C   0  0  0  0  0  0  0  0  0  0  0  0
    7.7631    4.2091    0.0000 C   0  0  0  0  0  0  0  0  0  0  0  0
    3.6750   -3.4196    0.0000 C   0  0  0  0  0  0  0  0  0  0  0  0
    2.0570   -3.4196    0.0000 C   0  0  0  0  0  0  0  0  0  0  0  0
    9.1643    3.1910    0.0000 C   0  0  0  0  0  0  0  0  0  0  0  0
    8.5765    2.3820    0.0000 C   0  0  0  0  0  0  0  0  0  0  0  0
    8.7576    4.1046    0.0000 C   0  0  0  0  0  0  0  0  0  0  0  0
    3.3660   -4.3706    0.0000 C   0  0  0  0  0  0  0  0  0  0  0  0
   10.1588    3.0865    0.0000 C   0  0  0  0  0  0  0  0  0  0  0  0
   10.7466    3.8955    0.0000 C   0  0  0  0  0  0  0  0  0  0  0  0
    2.8660    1.7882    0.0000 H   0  0  0  0  0  0  0  0  0  0  0  0
    4.2690    1.3582    0.0000 H   0  0  0  0  0  0  0  0  0  0  0  0
    2.3100    2.2051    0.0000 H   0  0  0  0  0  0  0  0  0  0  0  0
    1.4631    1.9782    0.0000 H   0  0  0  0  0  0  0  0  0  0  0  0
    1.6900    1.1313    0.0000 H   0  0  0  0  0  0  0  0  0  0  0  0
    4.2690   -0.0218    0.0000 H   0  0  0  0  0  0  0  0  0  0  0  0
    1.4631   -0.0218    0.0000 H   0  0  0  0  0  0  0  0  0  0  0  0
    4.2690   -1.6418    0.0000 H   0  0  0  0  0  0  0  0  0  0  0  0
    1.4631   -1.6418    0.0000 H   0  0  0  0  0  0  0  0  0  0  0  0
    4.2419    4.5776    0.0000 H   0  0  0  0  0  0  0  0  0  0  0  0
    5.9329    4.9370    0.0000 H   0  0  0  0  0  0  0  0  0  0  0  0
    7.2176    1.9850    0.0000 H   0  0  0  0  0  0  0  0  0  0  0  0
    7.5109    4.7755    0.0000 H   0  0  0  0  0  0  0  0  0  0  0  0
    4.2647   -3.2280    0.0000 H   0  0  0  0  0  0  0  0  0  0  0  0
    1.4674   -3.2280    0.0000 H   0  0  0  0  0  0  0  0  0  0  0  0
    8.8287    1.8156    0.0000 H   0  0  0  0  0  0  0  0  0  0  0  0
    9.1220    4.6062    0.0000 H   0  0  0  0  0  0  0  0  0  0  0  0
    3.7304   -4.8722    0.0000 H   0  0  0  0  0  0  0  0  0  0  0  0
   11.2482    3.5311    0.0000 H   0  0  0  0  0  0  0  0  0  0  0  0
   11.1111    4.3971    0.0000 H   0  0  0  0  0  0  0  0  0  0  0  0
   10.2450    4.2599    0.0000 H   0  0  0  0  0  0  0  0  0  0  0  0
  1 16  1  0  0  0  0 
  1 17  1  0  0  0  0 
  2 15  2  0  0  0  0 
  3 29  2  0  0  0  0 
  7  4  1  1  0  0  0 
  4 15  1  0  0  0  0 
  4 32  1  0  0  0  0 
  5 12  1  0  0  0  0 
  5 23  1  0  0  0  0 
  5 24  1  0  0  0  0 
  6 24  2  0  0  0  0 
  6 28  1  0  0  0  0 
  7  8  1  0  0  0  0 
  7  9  1  0  0  0  0 
  7 31  1  0  0  0  0 
  8 10  2  0  0  0  0 
  8 11  1  0  0  0  0 
  9 33  1  0  0  0  0 
  9 34  1  0  0  0  0 
  9 35  1  0  0  0  0 
 10 13  1  0  0  0  0 
 10 36  1  0  0  0  0 
 11 14  2  0  0  0  0 
 11 37  1  0  0  0  0 
 12 13  2  0  0  0  0 
 12 14  1  0  0  0  0 
 13 38  1  0  0  0  0 
 14 39  1  0  0  0  0 
 15 16  1  0  0  0  0 
 16 19  2  0  0  0  0 
 17 18  1  0  0  0  0 
 17 20  2  0  0  0  0 
 18 21  2  0  0  0  0 
 18 22  1  0  0  0  0 
 19 20  1  0  0  0  0 
 19 40  1  0  0  0  0 
 20 41  1  0  0  0  0 
 21 26  1  0  0  0  0 
 21 42  1  0  0  0  0 
 22 27  2  0  0  0  0 
 22 43  1  0  0  0  0 
 23 28  2  0  0  0  0 
 23 44  1  0  0  0  0 
 24 45  1  0  0  0  0 
 25 26  2  0  0  0  0 
 25 27  1  0  0  0  0 
 25 29  1  0  0  0  0 
 26 46  1  0  0  0  0 
 27 47  1  0  0  0  0 
 28 48  1  0  0  0  0 
 29 30  1  0  0  0  0 
 30 49  1  0  0  0  0 
 30 50  1  0  0  0  0 
 30 51  1  0  0  0  0 
M  END
> <cdk:Title>
40704817

> <cdk:Remark>
null

> <PUBCHEM_COMPOUND_CID>
40704817

> <PUBCHEM_COMPOUND_CANONICALIZED>
1

> <PUBCHEM_CACTVS_COMPLEXITY>
597

> <PUBCHEM_CACTVS_HBOND_ACCEPTOR>
4

> <PUBCHEM_CACTVS_HBOND_DONOR>
1

> <PUBCHEM_CACTVS_ROTATABLE_BOND>
6

> <PUBCHEM_CACTVS_SUBSKEYS>
AAADceB7MAAAAAAAAAAAAAAAAAAAAWJAAAAwYAAAAAAAAAAB9AAAHgAQAAAADCzBmgQ/1JfMFECoArV3dAKCiC01MqAJyIHefMiObnLEvb+XOSjs1hPY6aeY3/LuSAAAAAAAAACQAAAAAAAAAAAAAAAAAA==

> <PUBCHEM_IUPAC_OPENEYE_NAME>
5-(4-acetylphenyl)-N-[(1R)-1-(4-imidazol-1-ylphenyl)ethyl]furan-2-carboxamide

> <PUBCHEM_IUPAC_CAS_NAME>
5-(4-acetylphenyl)-N-[(1R)-1-[4-(1-imidazolyl)phenyl]ethyl]-2-furancarboxamide

> <PUBCHEM_IUPAC_NAME>
5-(4-acetylphenyl)-N-[(1R)-1-(4-imidazol-1-ylphenyl)ethyl]furan-2-carboxamide

> <PUBCHEM_IUPAC_SYSTEMATIC_NAME>
5-(4-ethanoylphenyl)-N-[(1R)-1-(4-imidazol-1-ylphenyl)ethyl]furan-2-carboxamide

> <PUBCHEM_IUPAC_TRADITIONAL_NAME>
5-(4-acetylphenyl)-N-[(1R)-1-(4-imidazol-1-ylphenyl)ethyl]-2-furamide

> <PUBCHEM_IUPAC_INCHI>
InChI=1S/C24H21N3O3/c1-16(18-7-9-21(10-8-18)27-14-13-25-15-27)26-24(29)23-12-11-22(30-23)20-5-3-19(4-6-20)17(2)28/h3-16H,1-2H3,(H,26,29)/t16-/m1/s1

> <PUBCHEM_IUPAC_INCHIKEY>
WDMQZUKBYAJJEI-MRXNPFEDSA-N

> <PUBCHEM_XLOGP3_AA>
3.6

> <PUBCHEM_EXACT_MASS>
399.158292

> <PUBCHEM_MOLECULAR_FORMULA>
C24H21N3O3

> <PUBCHEM_MOLECULAR_WEIGHT>
399.44184

> <PUBCHEM_OPENEYE_CAN_SMILES>
CC(C1=CC=C(C=C1)N2C=CN=C2)NC(=O)C3=CC=C(O3)C4=CC=C(C=C4)C(=O)C

> <PUBCHEM_OPENEYE_ISO_SMILES>
C[C@H](C1=CC=C(C=C1)N2C=CN=C2)NC(=O)C3=CC=C(O3)C4=CC=C(C=C4)C(=O)C

> <PUBCHEM_CACTVS_TPSA>
77.1

> <PUBCHEM_MONOISOTOPIC_WEIGHT>
399.158292

> <PUBCHEM_TOTAL_CHARGE>
0

> <PUBCHEM_HEAVY_ATOM_COUNT>
30

> <PUBCHEM_ATOM_DEF_STEREO_COUNT>
1

> <PUBCHEM_ATOM_UDEF_STEREO_COUNT>
0

> <PUBCHEM_BOND_DEF_STEREO_COUNT>
0

> <PUBCHEM_BOND_UDEF_STEREO_COUNT>
0

> <PUBCHEM_ISOTOPIC_ATOM_COUNT>
0

> <PUBCHEM_COMPONENT_COUNT>
1

> <PUBCHEM_CACTVS_TAUTO_COUNT>
4

> <PUBCHEM_COORDINATE_TYPE>
1

> <PUBCHEM_BONDANNOTATIONS>
1  16  8

$$$$
