66033918
  CDK     0104151047

 34 35  0  0  0  0  0  0  0  0999 V2000
    6.0875    4.0580    0.0000 Br  0  0  0  0  0  0  0  0  0  0  0  0
    4.5981   -1.0580    0.0000 Cl  0  0  0  0  0  0  0  0  0  0  0  0
    4.7026    2.9365    0.0000 S   0  0  0  0  0  0  0  0  0  0  0  0
    3.7320    0.4420    0.0000 C   0  0  3  0  0  0  0  0  0  0  0  0
    2.8660   -0.0580    0.0000 C   0  0  0  0  0  0  0  0  0  0  0  0
    3.7320    1.4420    0.0000 C   0  0  0  0  0  0  0  0  0  0  0  0
    4.5981   -0.0580    0.0000 C   0  0  0  0  0  0  0  0  0  0  0  0
    2.8660   -1.0580    0.0000 C   0  0  0  0  0  0  0  0  0  0  0  0
    4.5981    1.9420    0.0000 C   0  0  0  0  0  0  0  0  0  0  0  0
    2.0000   -1.5580    0.0000 C   0  0  0  0  0  0  0  0  0  0  0  0
    3.7320   -1.5580    0.0000 C   0  0  0  0  0  0  0  0  0  0  0  0
    5.5116    1.5353    0.0000 C   0  0  0  0  0  0  0  0  0  0  0  0
    2.8660   -3.0580    0.0000 C   0  0  0  0  0  0  0  0  0  0  0  0
    2.0000   -2.5580    0.0000 C   0  0  0  0  0  0  0  0  0  0  0  0
    3.7320   -2.5580    0.0000 C   0  0  0  0  0  0  0  0  0  0  0  0
    6.1808    2.2784    0.0000 C   0  0  0  0  0  0  0  0  0  0  0  0
    5.6808    3.1444    0.0000 C   0  0  0  0  0  0  0  0  0  0  0  0
    2.8660   -4.0580    0.0000 C   0  0  0  0  0  0  0  0  0  0  0  0
    3.7320   -0.1780    0.0000 H   0  0  0  0  0  0  0  0  0  0  0  0
    2.6540    0.5246    0.0000 H   0  0  0  0  0  0  0  0  0  0  0  0
    2.2554   -0.1657    0.0000 H   0  0  0  0  0  0  0  0  0  0  0  0
    3.5200    2.0246    0.0000 H   0  0  0  0  0  0  0  0  0  0  0  0
    3.1215    1.3344    0.0000 H   0  0  0  0  0  0  0  0  0  0  0  0
    5.2087   -0.1657    0.0000 H   0  0  0  0  0  0  0  0  0  0  0  0
    4.8101    0.5246    0.0000 H   0  0  0  0  0  0  0  0  0  0  0  0
    1.4631   -1.2480    0.0000 H   0  0  0  0  0  0  0  0  0  0  0  0
    4.2690   -1.2480    0.0000 H   0  0  0  0  0  0  0  0  0  0  0  0
    5.6405    0.9288    0.0000 H   0  0  0  0  0  0  0  0  0  0  0  0
    1.4631   -2.8680    0.0000 H   0  0  0  0  0  0  0  0  0  0  0  0
    4.2690   -2.8680    0.0000 H   0  0  0  0  0  0  0  0  0  0  0  0
    6.7974    2.2136    0.0000 H   0  0  0  0  0  0  0  0  0  0  0  0
    2.2460   -4.0580    0.0000 H   0  0  0  0  0  0  0  0  0  0  0  0
    2.8660   -4.6780    0.0000 H   0  0  0  0  0  0  0  0  0  0  0  0
    3.4860   -4.0580    0.0000 H   0  0  0  0  0  0  0  0  0  0  0  0
  1 17  1  0  0  0  0 
  2  7  1  0  0  0  0 
  3  9  1  0  0  0  0 
  3 17  1  0  0  0  0 
  4  5  1  0  0  0  0 
  4  6  1  0  0  0  0 
  4  7  1  0  0  0  0 
  4 19  1  0  0  0  0 
  5  8  1  0  0  0  0 
  5 20  1  0  0  0  0 
  5 21  1  0  0  0  0 
  6  9  1  0  0  0  0 
  6 22  1  0  0  0  0 
  6 23  1  0  0  0  0 
  7 24  1  0  0  0  0 
  7 25  1  0  0  0  0 
  8 10  2  0  0  0  0 
  8 11  1  0  0  0  0 
  9 12  2  0  0  0  0 
 10 14  1  0  0  0  0 
 10 26  1  0  0  0  0 
 11 15  2  0  0  0  0 
 11 27  1  0  0  0  0 
 12 16  1  0  0  0  0 
 12 28  1  0  0  0  0 
 13 14  2  0  0  0  0 
 13 15  1  0  0  0  0 
 13 18  1  0  0  0  0 
 14 29  1  0  0  0  0 
 15 30  1  0  0  0  0 
 16 17  2  0  0  0  0 
 16 31  1  0  0  0  0 
 18 32  1  0  0  0  0 
 18 33  1  0  0  0  0 
 18 34  1  0  0  0  0 
M  END
> <cdk:Title>
66033918

> <cdk:Remark>
null

> <PUBCHEM_COMPOUND_CID>
66033918

> <PUBCHEM_COMPOUND_CANONICALIZED>
1

> <PUBCHEM_CACTVS_COMPLEXITY>
241

> <PUBCHEM_CACTVS_HBOND_ACCEPTOR>
1

> <PUBCHEM_CACTVS_HBOND_DONOR>
0

> <PUBCHEM_CACTVS_ROTATABLE_BOND>
5

> <PUBCHEM_CACTVS_SUBSKEYS>
AAADceBwAABEEAAAAAAAAAAAAAAAASAAAAAwAAAAAAAAAAABwAAAGAZAAAABLQOAWEAyAYAAAAiEAiBCAAADAIAgCBRIiBgAAqgIICKhERCAIAAggAAoihcAgMAOQAAAAAAAAACAAAAAAAAAAAAAAAAAAA==

> <PUBCHEM_IUPAC_OPENEYE_NAME>
2-bromo-5-[2-(chloromethyl)-3-(p-tolyl)propyl]thiophene

> <PUBCHEM_IUPAC_CAS_NAME>
2-bromo-5-[2-(chloromethyl)-3-(4-methylphenyl)propyl]thiophene

> <PUBCHEM_IUPAC_NAME>
2-bromo-5-[2-(chloromethyl)-3-(4-methylphenyl)propyl]thiophene

> <PUBCHEM_IUPAC_SYSTEMATIC_NAME>
2-bromanyl-5-[2-(chloromethyl)-3-(4-methylphenyl)propyl]thiophene

> <PUBCHEM_IUPAC_TRADITIONAL_NAME>
2-bromo-5-[2-(chloromethyl)-3-(p-tolyl)propyl]thiophene

> <PUBCHEM_IUPAC_INCHI>
InChI=1S/C15H16BrClS/c1-11-2-4-12(5-3-11)8-13(10-17)9-14-6-7-15(16)18-14/h2-7,13H,8-10H2,1H3

> <PUBCHEM_IUPAC_INCHIKEY>
SRZJMMWAFFTTSJ-UHFFFAOYSA-N

> <PUBCHEM_XLOGP3_AA>
6.1

> <PUBCHEM_EXACT_MASS>
341.984461

> <PUBCHEM_MOLECULAR_FORMULA>
C15H16BrClS

> <PUBCHEM_MOLECULAR_WEIGHT>
343.70954

> <PUBCHEM_OPENEYE_CAN_SMILES>
CC1=CC=C(C=C1)CC(CC2=CC=C(S2)Br)CCl

> <PUBCHEM_OPENEYE_ISO_SMILES>
CC1=CC=C(C=C1)CC(CC2=CC=C(S2)Br)CCl

> <PUBCHEM_CACTVS_TPSA>
28.2

> <PUBCHEM_MONOISOTOPIC_WEIGHT>
341.984461

> <PUBCHEM_TOTAL_CHARGE>
0

> <PUBCHEM_HEAVY_ATOM_COUNT>
18

> <PUBCHEM_ATOM_DEF_STEREO_COUNT>
0

> <PUBCHEM_ATOM_UDEF_STEREO_COUNT>
1

> <PUBCHEM_BOND_DEF_STEREO_COUNT>
0

> <PUBCHEM_BOND_UDEF_STEREO_COUNT>
0

> <PUBCHEM_ISOTOPIC_ATOM_COUNT>
0

> <PUBCHEM_COMPONENT_COUNT>
1

> <PUBCHEM_CACTVS_TAUTO_COUNT>
1

> <PUBCHEM_COORDINATE_TYPE>
1

> <PUBCHEM_BONDANNOTATIONS>
10  14  8

$$$$
