
  CDK     0224152114

 18 20  0  0  0  0  0  0  0  0999 V2000
    6.9809   -2.0596    0.0000 N   0  0  0  0  0  0  0  0  0  0  0  0
    8.5206   -2.5569    0.0000 N   0  0  0  0  0  0  0  0  0  0  0  0
    5.9674    0.8577    0.0000 N   0  0  0  0  0  0  0  0  0  0  0  0
    3.7320    3.3192    0.0000 N   0  0  0  0  0  0  0  0  0  0  0  0
    4.6783    3.6239    0.0000 N   0  0  0  0  0  0  0  0  0  0  0  0
    7.5673   -1.2496    0.0000 C   0  0  3  0  0  0  0  0  0  0  0  0
    7.2566   -0.2990    0.0000 C   0  0  0  0  0  0  0  0  0  0  0  0
    8.5189   -1.5569    0.0000 C   0  0  0  0  0  0  0  0  0  0  0  0
    7.5701   -2.8676    0.0000 C   0  0  0  0  0  0  0  0  0  0  0  0
    6.2781   -0.0928    0.0000 C   0  0  0  0  0  0  0  0  0  0  0  0
    4.9889    1.0639    0.0000 C   0  0  0  0  0  0  0  0  0  0  0  0
    4.6783    2.0144    0.0000 C   0  0  0  0  0  0  0  0  0  0  0  0
    3.7320    2.3192    0.0000 C   0  0  0  0  0  0  0  0  0  0  0  0
    5.2619    2.8192    0.0000 C   0  0  0  0  0  0  0  0  0  0  0  0
    2.8660    1.8192    0.0000 C   0  0  0  0  0  0  0  0  0  0  0  0
    2.8660    3.8192    0.0000 C   0  0  0  0  0  0  0  0  0  0  0  0
    2.0000    2.3192    0.0000 C   0  0  0  0  0  0  0  0  0  0  0  0
    2.0000    3.3192    0.0000 C   0  0  0  0  0  0  0  0  0  0  0  0
  1  6  1  0  0  0  0 
  1  9  1  0  0  0  0 
  2  8  1  0  0  0  0 
  2  9  1  0  0  0  0 
  3 10  1  0  0  0  0 
  3 11  1  0  0  0  0 
  4  5  1  0  0  0  0 
  4 13  1  0  0  0  0 
  4 16  1  0  0  0  0 
  5 14  1  0  0  0  0 
  6  7  1  0  0  0  0 
  6  8  1  0  0  0  0 
  7 10  1  0  0  0  0 
 11 12  1  0  0  0  0 
 12 13  1  0  0  0  0 
 12 14  1  0  0  0  0 
 13 15  1  0  0  0  0 
 15 17  1  0  0  0  0 
 16 18  1  0  0  0  0 
 17 18  1  0  0  0  0 
M  END
> <PUBCHEM_COMPOUND_CID>
56885935

$$$$

  CDK     0224152114

 18 20  0  0  0  0  0  0  0  0999 V2000
    6.3776    0.1650    0.0000 S   0  0  0  0  0  0  0  0  0  0  0  0
    6.5468    1.7741    0.0000 N   0  0  0  0  0  0  0  0  0  0  0  0
    6.9535    2.6877    0.0000 C   0  0  0  0  0  0  0  0  0  0  0  0
    5.4641    0.5717    0.0000 C   0  0  0  0  0  0  0  0  0  0  0  0
    5.5686    1.5662    0.0000 C   0  0  0  0  0  0  0  0  0  0  0  0
    4.5981   -0.9283    0.0000 C   0  0  0  0  0  0  0  0  0  0  0  0
    4.5981    0.0717    0.0000 C   0  0  0  0  0  0  0  0  0  0  0  0
    7.9480    2.7922    0.0000 C   0  0  0  0  0  0  0  0  0  0  0  0
    6.3657    3.4967    0.0000 C   0  0  0  0  0  0  0  0  0  0  0  0
    7.0468    0.9081    0.0000 C   0  0  0  0  0  0  0  0  0  0  0  0
    7.7670    4.5148    0.0000 C   0  0  0  0  0  0  0  0  0  0  0  0
    3.7320   -1.4283    0.0000 C   0  0  0  0  0  0  0  0  0  0  0  0
    3.7320   -2.4283    0.0000 C   0  0  0  0  0  0  0  0  0  0  0  0
    8.3548    3.7058    0.0000 C   0  0  0  0  0  0  0  0  0  0  0  0
    6.7725    4.4102    0.0000 C   0  0  0  0  0  0  0  0  0  0  0  0
    5.4641   -1.4283    0.0000 C   0  0  0  0  0  0  0  0  0  0  0  0
    4.5981   -2.9283    0.0000 C   0  0  0  0  0  0  0  0  0  0  0  0
    5.4641   -2.4283    0.0000 C   0  0  0  0  0  0  0  0  0  0  0  0
  1  4  1  0  0  0  0 
  1 10  1  0  0  0  0 
  2  3  1  0  0  0  0 
  2  5  1  0  0  0  0 
  2 10  1  0  0  0  0 
  3  8  1  0  0  0  0 
  3  9  1  0  0  0  0 
  4  5  1  0  0  0  0 
  4  7  1  0  0  0  0 
  6  7  1  0  0  0  0 
  6 12  1  0  0  0  0 
  6 16  1  0  0  0  0 
  8 14  1  0  0  0  0 
  9 15  1  0  0  0  0 
 11 14  1  0  0  0  0 
 11 15  1  0  0  0  0 
 12 13  1  0  0  0  0 
 13 17  1  0  0  0  0 
 16 18  1  0  0  0  0 
 17 18  1  0  0  0  0 
M  END
> <PUBCHEM_COMPOUND_CID>
17684074

$$$$

  CDK     0224152114

 18 20  0  0  0  0  0  0  0  0999 V2000
    5.4641   -1.7500    0.0000 N   0  0  0  0  0  0  0  0  0  0  0  0
    6.3301   -0.2500    0.0000 N   0  0  0  0  0  0  0  0  0  0  0  0
    4.5981   -1.2500    0.0000 C   0  0  2  0  0  0  0  0  0  0  0  0
    4.5981   -0.2500    0.0000 C   0  0  0  0  0  0  0  0  0  0  0  0
    5.4641    0.2500    0.0000 C   0  0  0  0  0  0  0  0  0  0  0  0
    3.7320   -1.7500    0.0000 C   0  0  0  0  0  0  0  0  0  0  0  0
    5.4641    1.2500    0.0000 C   0  0  0  0  0  0  0  0  0  0  0  0
    6.3301   -1.2500    0.0000 C   0  0  0  0  0  0  0  0  0  0  0  0
    2.8660   -1.2500    0.0000 C   0  0  0  0  0  0  0  0  0  0  0  0
    3.7320   -2.7500    0.0000 C   0  0  0  0  0  0  0  0  0  0  0  0
    6.3301    1.7500    0.0000 C   0  0  0  0  0  0  0  0  0  0  0  0
    4.5981    1.7500    0.0000 C   0  0  0  0  0  0  0  0  0  0  0  0
    2.0000   -1.7500    0.0000 C   0  0  0  0  0  0  0  0  0  0  0  0
    2.8660   -3.2500    0.0000 C   0  0  0  0  0  0  0  0  0  0  0  0
    2.0000   -2.7500    0.0000 C   0  0  0  0  0  0  0  0  0  0  0  0
    6.3301    2.7500    0.0000 C   0  0  0  0  0  0  0  0  0  0  0  0
    4.5981    2.7500    0.0000 C   0  0  0  0  0  0  0  0  0  0  0  0
    5.4641    3.2500    0.0000 C   0  0  0  0  0  0  0  0  0  0  0  0
  1  3  1  0  0  0  0 
  1  8  1  0  0  0  0 
  2  5  1  0  0  0  0 
  2  8  1  0  0  0  0 
  3  4  1  0  0  0  0 
  3  6  1  1  0  0  0 
  4  5  1  0  0  0  0 
  5  7  1  0  0  0  0 
  6  9  1  0  0  0  0 
  6 10  1  0  0  0  0 
  7 11  1  0  0  0  0 
  7 12  1  0  0  0  0 
  9 13  1  0  0  0  0 
 10 14  1  0  0  0  0 
 11 16  1  0  0  0  0 
 12 17  1  0  0  0  0 
 13 15  1  0  0  0  0 
 14 15  1  0  0  0  0 
 16 18  1  0  0  0  0 
 17 18  1  0  0  0  0 
M  END
> <PUBCHEM_COMPOUND_CID>
890505

$$$$
