58625834
  CDK     0104150955

 26 27  0  0  0  0  0  0  0  0999 V2000
    7.7991    0.3635    0.0000 O   0  0  0  0  0  0  0  0  0  0  0  0
    4.2690   -0.6123    0.0000 N   0  0  0  0  0  0  0  0  0  0  0  0
    3.4030   -2.1123    0.0000 N   0  0  0  0  0  0  0  0  0  0  0  0
    2.5369   -0.6123    0.0000 N   0  0  0  0  0  0  0  0  0  0  0  0
    5.1350    0.8877    0.0000 C   0  0  0  0  0  0  0  0  0  0  0  0
    5.1350    1.8877    0.0000 C   0  0  0  0  0  0  0  0  0  0  0  0
    4.2690    0.3877    0.0000 C   0  0  0  0  0  0  0  0  0  0  0  0
    6.0290    0.3530    0.0000 C   0  0  0  0  0  0  0  0  0  0  0  0
    4.2690    2.3877    0.0000 C   0  0  0  0  0  0  0  0  0  0  0  0
    6.0290    2.4223    0.0000 C   0  0  0  0  0  0  0  0  0  0  0  0
    3.4030    0.8877    0.0000 C   0  0  0  0  0  0  0  0  0  0  0  0
    6.9350    0.8669    0.0000 C   0  0  0  0  0  0  0  0  0  0  0  0
    3.4030    1.8877    0.0000 C   0  0  0  0  0  0  0  0  0  0  0  0
    6.9350    1.9085    0.0000 C   0  0  0  0  0  0  0  0  0  0  0  0
    3.4030   -1.1123    0.0000 C   0  0  0  0  0  0  0  0  0  0  0  0
    6.0218   -0.2670    0.0000 H   0  0  0  0  0  0  0  0  0  0  0  0
    4.2690    3.0077    0.0000 H   0  0  0  0  0  0  0  0  0  0  0  0
    6.0218    3.0423    0.0000 H   0  0  0  0  0  0  0  0  0  0  0  0
    2.8660    0.5777    0.0000 H   0  0  0  0  0  0  0  0  0  0  0  0
    2.8660    2.1977    0.0000 H   0  0  0  0  0  0  0  0  0  0  0  0
    7.4708    2.2205    0.0000 H   0  0  0  0  0  0  0  0  0  0  0  0
    8.3372    0.6714    0.0000 H   0  0  0  0  0  0  0  0  0  0  0  0
    2.8660   -2.4223    0.0000 H   0  0  0  0  0  0  0  0  0  0  0  0
    3.9399   -2.4223    0.0000 H   0  0  0  0  0  0  0  0  0  0  0  0
    2.0000   -0.9223    0.0000 H   0  0  0  0  0  0  0  0  0  0  0  0
    2.5369    0.0077    0.0000 H   0  0  0  0  0  0  0  0  0  0  0  0
  1 12  1  0  0  0  0 
  1 22  1  0  0  0  0 
  2  7  1  0  0  0  0 
  2 15  2  0  0  0  0 
  3 15  1  0  0  0  0 
  3 23  1  0  0  0  0 
  3 24  1  0  0  0  0 
  4 15  1  0  0  0  0 
  4 25  1  0  0  0  0 
  4 26  1  0  0  0  0 
  5  6  2  0  0  0  0 
  5  7  1  0  0  0  0 
  5  8  1  0  0  0  0 
  6  9  1  0  0  0  0 
  6 10  1  0  0  0  0 
  7 11  2  0  0  0  0 
  8 12  2  0  0  0  0 
  8 16  1  0  0  0  0 
  9 13  2  0  0  0  0 
  9 17  1  0  0  0  0 
 10 14  2  0  0  0  0 
 10 18  1  0  0  0  0 
 11 13  1  0  0  0  0 
 11 19  1  0  0  0  0 
 12 14  1  0  0  0  0 
 13 20  1  0  0  0  0 
 14 21  1  0  0  0  0 
M  END
> <cdk:Title>
58625834

> <cdk:Remark>
null

> <PUBCHEM_COMPOUND_CID>
58625834

> <PUBCHEM_COMPOUND_CANONICALIZED>
1

> <PUBCHEM_CACTVS_COMPLEXITY>
250

> <PUBCHEM_CACTVS_HBOND_ACCEPTOR>
2

> <PUBCHEM_CACTVS_HBOND_DONOR>
3

> <PUBCHEM_CACTVS_ROTATABLE_BOND>
1

> <PUBCHEM_CACTVS_SUBSKEYS>
AAADccBzIAAAAAAAAAAAAAAAAAAAAAAAAAAwYAAAAAAAAADBUAAAHgAQCAAADAyBmAAxxsJAAgCgAiRCZACCAAEgIgAIiAAGbIgIJiKCkZOAcABkwBEI2AewwLAOoAABQAASAABAAAKAACQAAAAAAAAAAA==

> <PUBCHEM_IUPAC_OPENEYE_NAME>
2-(7-hydroxy-1-naphthyl)guanidine

> <PUBCHEM_IUPAC_CAS_NAME>
2-(7-hydroxy-1-naphthalenyl)guanidine

> <PUBCHEM_IUPAC_NAME>
2-(7-hydroxynaphthalen-1-yl)guanidine

> <PUBCHEM_IUPAC_SYSTEMATIC_NAME>
2-(7-oxidanylnaphthalen-1-yl)guanidine

> <PUBCHEM_IUPAC_TRADITIONAL_NAME>
2-(7-hydroxy-1-naphthyl)guanidine

> <PUBCHEM_IUPAC_INCHI>
InChI=1S/C11H11N3O/c12-11(13)14-10-3-1-2-7-4-5-8(15)6-9(7)10/h1-6,15H,(H4,12,13,14)

> <PUBCHEM_IUPAC_INCHIKEY>
WLYRNVNHNFAIQU-UHFFFAOYSA-N

> <PUBCHEM_XLOGP3>
0.8

> <PUBCHEM_EXACT_MASS>
201.090212

> <PUBCHEM_MOLECULAR_FORMULA>
C11H11N3O

> <PUBCHEM_MOLECULAR_WEIGHT>
201.22454

> <PUBCHEM_OPENEYE_CAN_SMILES>
C1=CC2=C(C=C(C=C2)O)C(=C1)N=C(N)N

> <PUBCHEM_OPENEYE_ISO_SMILES>
C1=CC2=C(C=C(C=C2)O)C(=C1)N=C(N)N

> <PUBCHEM_CACTVS_TPSA>
84.6

> <PUBCHEM_MONOISOTOPIC_WEIGHT>
201.090212

> <PUBCHEM_TOTAL_CHARGE>
0

> <PUBCHEM_HEAVY_ATOM_COUNT>
15

> <PUBCHEM_ATOM_DEF_STEREO_COUNT>
0

> <PUBCHEM_ATOM_UDEF_STEREO_COUNT>
0

> <PUBCHEM_BOND_DEF_STEREO_COUNT>
0

> <PUBCHEM_BOND_UDEF_STEREO_COUNT>
0

> <PUBCHEM_ISOTOPIC_ATOM_COUNT>
0

> <PUBCHEM_COMPONENT_COUNT>
1

> <PUBCHEM_CACTVS_TAUTO_COUNT>
11

> <PUBCHEM_COORDINATE_TYPE>
1

> <PUBCHEM_BONDANNOTATIONS>
10  14  8

$$$$
