
  CDK     0202151410

 16 17  0  0  0  0  0  0  0  0999 V2000
    5.4641   -2.8364    0.0000 O   0  0  0  0  0  0  0  0  0  0  0  0
    6.3301    1.6636    0.0000 N   0  0  0  0  0  0  0  0  0  0  0  0
    4.5981   -1.3364    0.0000 N   0  0  0  0  0  0  0  0  0  0  0  0
    6.8301    3.2024    0.0000 C   0  0  0  0  0  0  0  0  0  0  0  0
    5.8301    3.2024    0.0000 C   0  0  0  0  0  0  0  0  0  0  0  0
    7.1391    2.2514    0.0000 C   0  0  0  0  0  0  0  0  0  0  0  0
    5.5211    2.2514    0.0000 C   0  0  0  0  0  0  0  0  0  0  0  0
    6.3301    0.6636    0.0000 C   0  0  0  0  0  0  0  0  0  0  0  0
    5.4641    0.1636    0.0000 C   0  0  0  0  0  0  0  0  0  0  0  0
    7.1962    0.1636    0.0000 C   0  0  0  0  0  0  0  0  0  0  0  0
    5.4641   -0.8364    0.0000 C   0  0  0  0  0  0  0  0  0  0  0  0
    7.1962   -0.8364    0.0000 C   0  0  0  0  0  0  0  0  0  0  0  0
    6.3301   -1.3364    0.0000 C   0  0  0  0  0  0  0  0  0  0  0  0
    4.5981   -2.3364    0.0000 C   0  0  0  0  0  0  0  0  0  0  0  0
    3.7320   -2.8364    0.0000 C   0  0  0  0  0  0  0  0  0  0  0  0
    2.8660   -3.3364    0.0000 C   0  0  0  0  0  0  0  0  0  0  0  0
  1 14  1  0  0  0  0 
  2  6  1  0  0  0  0 
  2  7  1  0  0  0  0 
  2  8  1  0  0  0  0 
  3 11  1  0  0  0  0 
  3 14  1  0  0  0  0 
  4  5  1  0  0  0  0 
  4  6  1  0  0  0  0 
  5  7  1  0  0  0  0 
  8  9  1  0  0  0  0 
  8 10  1  0  0  0  0 
  9 11  1  0  0  0  0 
 10 12  1  0  0  0  0 
 11 13  1  0  0  0  0 
 12 13  1  0  0  0  0 
 14 15  1  0  0  0  0 
 15 16  1  0  0  0  0 
M  END
> <PUBCHEM_COMPOUND_CID>
13632598

$$$$
