
  CDK     0202151413

 17 16  0  0  0  0  0  0  0  0999 V2000
    8.9282   -1.2673    0.0000 O   0  0  0  0  0  0  0  0  0  0  0  0
    4.5981    0.2327    0.0000 O   0  0  0  0  0  0  0  0  0  0  0  0
    6.3301    1.2327    0.0000 O   0  0  0  0  0  0  0  0  0  0  0  0
    9.7942    0.2327    0.0000 N   0  0  0  0  0  0  0  0  0  0  0  0
    7.1962   -0.2673    0.0000 N   0  0  0  0  0  0  0  0  0  0  0  0
   10.6603   -0.2673    0.0000 C   0  0  1  0  0  0  0  0  0  0  0  0
   11.5263    0.2327    0.0000 C   0  0  0  0  0  0  0  0  0  0  0  0
    8.0622    0.2327    0.0000 C   0  0  1  0  0  0  0  0  0  0  0  0
   12.3923   -0.2673    0.0000 C   0  0  0  0  0  0  0  0  0  0  0  0
   10.6603   -1.2673    0.0000 C   0  0  0  0  0  0  0  0  0  0  0  0
   13.2583    0.2327    0.0000 C   0  0  0  0  0  0  0  0  0  0  0  0
   11.5263    1.2327    0.0000 C   0  0  0  0  0  0  0  0  0  0  0  0
    8.9282   -0.2673    0.0000 C   0  0  0  0  0  0  0  0  0  0  0  0
   12.3923    1.7327    0.0000 C   0  0  0  0  0  0  0  0  0  0  0  0
    8.0622    1.2327    0.0000 C   0  0  0  0  0  0  0  0  0  0  0  0
    6.3301    0.2327    0.0000 C   0  0  0  0  0  0  0  0  0  0  0  0
    5.4641   -0.2673    0.0000 C   0  0  0  0  0  0  0  0  0  0  0  0
  1 13  1  0  0  0  0 
  2 17  1  0  0  0  0 
  3 16  1  0  0  0  0 
  6  4  1  1  0  0  0 
  4 13  1  0  0  0  0 
  8  5  1  6  0  0  0 
  5 16  1  0  0  0  0 
  6  7  1  0  0  0  0 
  6 10  1  0  0  0  0 
  7  9  1  0  0  0  0 
  7 12  1  0  0  0  0 
  8 13  1  0  0  0  0 
  8 15  1  0  0  0  0 
  9 11  1  0  0  0  0 
 12 14  1  0  0  0  0 
 16 17  1  0  0  0  0 
M  END
> <PUBCHEM_COMPOUND_CID>
37545929

$$$$

  CDK     0202151413

 18 18  0  0  0  0  0  0  0  0999 V2000
    4.5981   -3.5000    0.0000 O   0  0  0  0  0  0  0  0  0  0  0  0
    5.4641   -1.0000    0.0000 O   0  0  0  0  0  0  0  0  0  0  0  0
    7.1962   -1.0000    0.0000 O   0  0  0  0  0  0  0  0  0  0  0  0
    6.3301    3.5000    0.0000 N   0  0  0  0  0  0  0  0  0  0  0  0
    5.4641    4.0000    0.0000 N   0  0  0  0  0  0  0  0  0  0  0  0
    7.1962    4.0000    0.0000 C   0  0  0  0  0  0  0  0  0  0  0  0
    6.3301    2.5000    0.0000 C   0  0  0  0  0  0  0  0  0  0  0  0
    5.4641    2.0000    0.0000 C   0  0  0  0  0  0  0  0  0  0  0  0
    7.1962    2.0000    0.0000 C   0  0  0  0  0  0  0  0  0  0  0  0
    6.3301    0.5000    0.0000 C   0  0  0  0  0  0  0  0  0  0  0  0
    3.7320   -4.0000    0.0000 C   0  0  0  0  0  0  0  0  0  0  0  0
    5.4641    1.0000    0.0000 C   0  0  0  0  0  0  0  0  0  0  0  0
    7.1962    1.0000    0.0000 C   0  0  0  0  0  0  0  0  0  0  0  0
    2.8660   -3.5000    0.0000 C   0  0  0  0  0  0  0  0  0  0  0  0
    3.7320   -5.0000    0.0000 C   0  0  0  0  0  0  0  0  0  0  0  0
    4.5981   -2.5000    0.0000 C   0  0  0  0  0  0  0  0  0  0  0  0
    5.4641   -2.0000    0.0000 C   0  0  0  0  0  0  0  0  0  0  0  0
    6.3301   -0.5000    0.0000 C   0  0  0  0  0  0  0  0  0  0  0  0
  1 11  1  0  0  0  0 
  1 16  1  0  0  0  0 
  2 17  1  0  0  0  0 
  2 18  1  0  0  0  0 
  3 18  1  0  0  0  0 
  4  5  1  0  0  0  0 
  4  6  1  0  0  0  0 
  4  7  1  0  0  0  0 
  7  8  1  0  0  0  0 
  7  9  1  0  0  0  0 
  8 12  1  0  0  0  0 
  9 13  1  0  0  0  0 
 10 12  1  0  0  0  0 
 10 13  1  0  0  0  0 
 10 18  1  0  0  0  0 
 11 14  1  0  0  0  0 
 11 15  1  0  0  0  0 
 16 17  1  0  0  0  0 
M  END
> <PUBCHEM_COMPOUND_CID>
48329520

$$$$

  CDK     0202151413

 17 17  0  0  0  0  0  0  0  0999 V2000
    2.8660   -4.0000    0.0000 O   0  0  0  0  0  0  0  0  0  0  0  0
    2.8660   -1.0000    0.0000 O   0  0  0  0  0  0  0  0  0  0  0  0
    7.1962   -2.5000    0.0000 N   0  0  0  0  0  0  0  0  0  0  0  0
    4.5981   -2.0000    0.0000 N   0  0  0  0  0  0  0  0  0  0  0  0
    3.7320    0.5000    0.0000 N   0  0  0  0  0  0  0  0  0  0  0  0
    6.3301   -2.0000    0.0000 C   0  0  0  0  0  0  0  0  0  0  0  0
    7.1962   -3.5000    0.0000 C   0  0  0  0  0  0  0  0  0  0  0  0
    8.0622   -2.0000    0.0000 C   0  0  0  0  0  0  0  0  0  0  0  0
    5.4641   -2.5000    0.0000 C   0  0  0  0  0  0  0  0  0  0  0  0
    4.5981   -1.0000    0.0000 C   0  0  0  0  0  0  0  0  0  0  0  0
    5.4641   -3.5000    0.0000 C   0  0  0  0  0  0  0  0  0  0  0  0
    3.7320   -2.5000    0.0000 C   0  0  0  0  0  0  0  0  0  0  0  0
    4.5981   -4.0000    0.0000 C   0  0  0  0  0  0  0  0  0  0  0  0
    3.7320   -3.5000    0.0000 C   0  0  0  0  0  0  0  0  0  0  0  0
    3.7320   -0.5000    0.0000 C   0  0  0  0  0  0  0  0  0  0  0  0
    2.8660    1.0000    0.0000 C   0  0  0  0  0  0  0  0  0  0  0  0
    2.8660    2.0000    0.0000 C   0  0  0  0  0  0  0  0  0  0  0  0
  1 14  1  0  0  0  0 
  2 15  1  0  0  0  0 
  3  6  1  0  0  0  0 
  3  7  1  0  0  0  0 
  3  8  1  0  0  0  0 
  4  9  1  0  0  0  0 
  4 10  1  0  0  0  0 
  4 12  1  0  0  0  0 
  5 15  1  0  0  0  0 
  5 16  1  0  0  0  0 
  6  9  1  0  0  0  0 
  9 11  1  0  0  0  0 
 10 15  1  0  0  0  0 
 11 13  1  0  0  0  0 
 12 14  1  0  0  0  0 
 13 14  1  0  0  0  0 
 16 17  1  0  0  0  0 
M  END
> <PUBCHEM_COMPOUND_CID>
30544573

$$$$

  CDK     0202151413

 17 17  0  0  0  0  0  0  0  0999 V2000
    9.3493   -0.3980    0.0000 O   0  0  0  0  0  0  0  0  0  0  0  0
    7.6172    0.6020    0.0000 O   0  0  0  0  0  0  0  0  0  0  0  0
    6.7512    2.1020    0.0000 O   0  0  0  0  0  0  0  0  0  0  0  0
   10.2153    1.1020    0.0000 N   0  0  0  0  0  0  0  0  0  0  0  0
    4.3025    0.2656    0.0000 N   0  0  0  0  0  0  0  0  0  0  0  0
   11.9474    1.1020    0.0000 C   0  0  1  0  0  0  0  0  0  0  0  0
   11.0813    0.6020    0.0000 C   0  0  0  0  0  0  0  0  0  0  0  0
   10.2153    2.1020    0.0000 C   0  0  0  0  0  0  0  0  0  0  0  0
    9.3493    0.6020    0.0000 C   0  0  0  0  0  0  0  0  0  0  0  0
    8.4833    1.1020    0.0000 C   0  0  0  0  0  0  0  0  0  0  0  0
    6.7512    1.1020    0.0000 C   0  0  0  0  0  0  0  0  0  0  0  0
    5.8852    0.6020    0.0000 C   0  0  0  0  0  0  0  0  0  0  0  0
    5.7807   -0.3926    0.0000 C   0  0  0  0  0  0  0  0  0  0  0  0
    4.9716    1.0087    0.0000 C   0  0  0  0  0  0  0  0  0  0  0  0
    4.8025   -0.6005    0.0000 C   0  0  0  0  0  0  0  0  0  0  0  0
    6.5238   -1.0617    0.0000 C   0  0  0  0  0  0  0  0  0  0  0  0
    4.3958   -1.5140    0.0000 C   0  0  0  0  0  0  0  0  0  0  0  0
  1  9  1  0  0  0  0 
  2 10  1  0  0  0  0 
  2 11  1  0  0  0  0 
  3 11  1  0  0  0  0 
  4  7  1  0  0  0  0 
  4  8  1  0  0  0  0 
  4  9  1  0  0  0  0 
  5 14  1  0  0  0  0 
  5 15  1  0  0  0  0 
  6  7  1  0  0  0  0 
  9 10  1  0  0  0  0 
 11 12  1  0  0  0  0 
 12 13  1  0  0  0  0 
 12 14  1  0  0  0  0 
 13 15  1  0  0  0  0 
 13 16  1  0  0  0  0 
 15 17  1  0  0  0  0 
M  END
> <PUBCHEM_COMPOUND_CID>
8576134

$$$$

  CDK     0202151413

 17 17  0  0  0  0  0  0  0  0999 V2000
    3.5827   -1.2500    0.0000 O   0  0  0  0  0  0  0  0  0  0  0  0
    5.3147   -3.2500    0.0000 N   0  0  0  0  0  0  0  0  0  0  0  0
    5.3147   -1.2500    0.0000 N   0  0  0  0  0  0  0  0  0  0  0  0
    7.9128    3.2500    0.0000 N   0  0  3  0  0  0  0  0  0  0  0  0
    3.5827   -3.2500    0.0000 C   0  0  0  0  0  0  0  0  0  0  0  0
    2.6691   -2.8433    0.0000 C   0  0  0  0  0  0  0  0  0  0  0  0
    3.4782   -4.2445    0.0000 C   0  0  0  0  0  0  0  0  0  0  0  0
    4.4487   -2.7500    0.0000 C   0  0  3  0  0  0  0  0  0  0  0  0
    4.4487   -1.7500    0.0000 C   0  0  0  0  0  0  0  0  0  0  0  0
    5.3147   -0.2500    0.0000 C   0  0  0  0  0  0  0  0  0  0  0  0
    7.0468    2.7500    0.0000 C   0  0  0  0  0  0  0  0  0  0  0  0
    7.0468    1.7500    0.0000 C   0  0  0  0  0  0  0  0  0  0  0  0
    6.1808    0.2500    0.0000 C   0  0  0  0  0  0  0  0  0  0  0  0
    6.1808    1.2500    0.0000 C   0  0  0  0  0  0  0  0  0  0  0  0
    7.9128    1.2500    0.0000 C   0  0  0  0  0  0  0  0  0  0  0  0
    7.0468   -0.2500    0.0000 C   0  0  0  0  0  0  0  0  0  0  0  0
    7.9128    0.2500    0.0000 C   0  0  0  0  0  0  0  0  0  0  0  0
  1  9  1  0  0  0  0 
  2  8  1  0  0  0  0 
  3  9  1  0  0  0  0 
  3 10  1  0  0  0  0 
  4 11  1  0  0  0  0 
  5  6  1  0  0  0  0 
  5  7  1  0  0  0  0 
  5  8  1  0  0  0  0 
  8  9  1  0  0  0  0 
 10 13  1  0  0  0  0 
 11 12  1  0  0  0  0 
 12 14  1  0  0  0  0 
 12 15  1  0  0  0  0 
 13 14  1  0  0  0  0 
 13 16  1  0  0  0  0 
 15 17  1  0  0  0  0 
 16 17  1  0  0  0  0 
M  END
> <PUBCHEM_COMPOUND_CID>
47899785

$$$$
