42395249
  CDK     1025140859

 63 66  0  0  0  0  0  0  0  0999 V2000
    8.8005    1.0562    0.0000 O   0  0  0  0  0  0  0  0  0  0  0  0
    9.6665    2.5562    0.0000 O   0  0  0  0  0  0  0  0  0  0  0  0
   10.5326   -1.9438    0.0000 O   0  0  0  0  0  0  0  0  0  0  0  0
    6.2024   -0.4439    0.0000 N   0  0  0  0  0  0  0  0  0  0  0  0
   11.3986    2.5562    0.0000 N   0  0  0  0  0  0  0  0  0  0  0  0
    3.2024   -2.1759    0.0000 N   0  0  0  0  0  0  0  0  0  0  0  0
    2.2079   -2.2804    0.0000 N   0  0  0  0  0  0  0  0  0  0  0  0
    7.0685   -0.9439    0.0000 C   0  0  0  0  0  0  0  0  0  0  0  0
    6.2024    0.5561    0.0000 C   0  0  0  0  0  0  0  0  0  0  0  0
    7.9345    0.5561    0.0000 C   0  0  0  0  0  0  0  0  0  0  0  0
    7.0685    1.0562    0.0000 C   0  0  0  0  0  0  0  0  0  0  0  0
    7.9345   -0.4439    0.0000 C   0  0  0  0  0  0  0  0  0  0  0  0
    5.2024   -0.4439    0.0000 C   0  0  0  0  0  0  0  0  0  0  0  0
    4.7024   -1.3099    0.0000 C   0  0  0  0  0  0  0  0  0  0  0  0
    3.7024   -1.3099    0.0000 C   0  0  0  0  0  0  0  0  0  0  0  0
    9.6665    0.5561    0.0000 C   0  0  0  0  0  0  0  0  0  0  0  0
   12.3121    2.1494    0.0000 C   0  0  0  0  0  0  0  0  0  0  0  0
   11.5031    3.5507    0.0000 C   0  0  0  0  0  0  0  0  0  0  0  0
   12.4813    3.7586    0.0000 C   0  0  0  0  0  0  0  0  0  0  0  0
   12.9813    2.8926    0.0000 C   0  0  0  0  0  0  0  0  0  0  0  0
   10.5326    1.0562    0.0000 C   0  0  0  0  0  0  0  0  0  0  0  0
   10.5326    2.0562    0.0000 C   0  0  0  0  0  0  0  0  0  0  0  0
    9.6665   -0.4439    0.0000 C   0  0  0  0  0  0  0  0  0  0  0  0
   11.3986    0.5561    0.0000 C   0  0  0  0  0  0  0  0  0  0  0  0
   10.5326   -0.9439    0.0000 C   0  0  0  0  0  0  0  0  0  0  0  0
    3.6092   -3.0894    0.0000 C   0  0  0  0  0  0  0  0  0  0  0  0
   11.3986   -0.4439    0.0000 C   0  0  0  0  0  0  0  0  0  0  0  0
    2.8660   -3.7586    0.0000 C   0  0  0  0  0  0  0  0  0  0  0  0
    2.0000   -3.2586    0.0000 C   0  0  0  0  0  0  0  0  0  0  0  0
   11.3986   -2.4438    0.0000 C   0  0  0  0  0  0  0  0  0  0  0  0
    5.8924   -0.9808    0.0000 H   0  0  0  0  0  0  0  0  0  0  0  0
    5.9904    1.1388    0.0000 H   0  0  0  0  0  0  0  0  0  0  0  0
    5.5918    0.4485    0.0000 H   0  0  0  0  0  0  0  0  0  0  0  0
    6.6699   -1.4188    0.0000 H   0  0  0  0  0  0  0  0  0  0  0  0
    7.4670   -1.4188    0.0000 H   0  0  0  0  0  0  0  0  0  0  0  0
    8.4714    0.2461    0.0000 H   0  0  0  0  0  0  0  0  0  0  0  0
    8.1465   -1.0265    0.0000 H   0  0  0  0  0  0  0  0  0  0  0  0
    8.5451   -0.3362    0.0000 H   0  0  0  0  0  0  0  0  0  0  0  0
    7.4670    1.5311    0.0000 H   0  0  0  0  0  0  0  0  0  0  0  0
    6.6699    1.5311    0.0000 H   0  0  0  0  0  0  0  0  0  0  0  0
    5.3101    0.1667    0.0000 H   0  0  0  0  0  0  0  0  0  0  0  0
    4.6198   -0.2318    0.0000 H   0  0  0  0  0  0  0  0  0  0  0  0
    4.5948   -1.9205    0.0000 H   0  0  0  0  0  0  0  0  0  0  0  0
    5.2850   -1.5219    0.0000 H   0  0  0  0  0  0  0  0  0  0  0  0
    3.8101   -0.6993    0.0000 H   0  0  0  0  0  0  0  0  0  0  0  0
    3.1198   -1.0978    0.0000 H   0  0  0  0  0  0  0  0  0  0  0  0
   11.4383    4.1673    0.0000 H   0  0  0  0  0  0  0  0  0  0  0  0
   10.8831    3.5507    0.0000 H   0  0  0  0  0  0  0  0  0  0  0  0
   12.0021    1.6125    0.0000 H   0  0  0  0  0  0  0  0  0  0  0  0
   12.8137    1.7850    0.0000 H   0  0  0  0  0  0  0  0  0  0  0  0
   13.0477    4.0108    0.0000 H   0  0  0  0  0  0  0  0  0  0  0  0
   12.2897    4.3482    0.0000 H   0  0  0  0  0  0  0  0  0  0  0  0
   13.3961    2.4318    0.0000 H   0  0  0  0  0  0  0  0  0  0  0  0
   13.4829    3.2570    0.0000 H   0  0  0  0  0  0  0  0  0  0  0  0
    9.1296   -0.7539    0.0000 H   0  0  0  0  0  0  0  0  0  0  0  0
   11.9355    0.8661    0.0000 H   0  0  0  0  0  0  0  0  0  0  0  0
    4.2156   -3.2184    0.0000 H   0  0  0  0  0  0  0  0  0  0  0  0
   11.9355   -0.7539    0.0000 H   0  0  0  0  0  0  0  0  0  0  0  0
    2.9308   -4.3752    0.0000 H   0  0  0  0  0  0  0  0  0  0  0  0
    1.4336   -3.5108    0.0000 H   0  0  0  0  0  0  0  0  0  0  0  0
   11.0886   -2.9808    0.0000 H   0  0  0  0  0  0  0  0  0  0  0  0
   11.9355   -2.7538    0.0000 H   0  0  0  0  0  0  0  0  0  0  0  0
   11.7086   -1.9069    0.0000 H   0  0  0  0  0  0  0  0  0  0  0  0
  1 10  1  0  0  0  0 
  1 16  1  0  0  0  0 
  2 22  2  0  0  0  0 
  3 25  1  0  0  0  0 
  3 30  1  0  0  0  0 
  4  8  1  0  0  0  0 
  4  9  1  0  0  0  0 
  4 13  1  0  0  0  0 
  4 31  1  0  0  0  0 
  5 17  1  0  0  0  0 
  5 18  1  0  0  0  0 
  5 22  1  0  0  0  0 
  6  7  1  0  0  0  0 
  6 15  1  0  0  0  0 
  6 26  1  0  0  0  0 
  7 29  2  0  0  0  0 
  8 12  1  0  0  0  0 
  8 34  1  0  0  0  0 
  8 35  1  0  0  0  0 
  9 11  1  0  0  0  0 
  9 32  1  0  0  0  0 
  9 33  1  0  0  0  0 
 10 11  1  0  0  0  0 
 10 12  1  0  0  0  0 
 10 36  1  0  0  0  0 
 11 39  1  0  0  0  0 
 11 40  1  0  0  0  0 
 12 37  1  0  0  0  0 
 12 38  1  0  0  0  0 
 13 14  1  0  0  0  0 
 13 41  1  0  0  0  0 
 13 42  1  0  0  0  0 
 14 15  1  0  0  0  0 
 14 43  1  0  0  0  0 
 14 44  1  0  0  0  0 
 15 45  1  0  0  0  0 
 15 46  1  0  0  0  0 
 16 21  2  0  0  0  0 
 16 23  1  0  0  0  0 
 17 20  1  0  0  0  0 
 17 49  1  0  0  0  0 
 17 50  1  0  0  0  0 
 18 19  1  0  0  0  0 
 18 47  1  0  0  0  0 
 18 48  1  0  0  0  0 
 19 20  1  0  0  0  0 
 19 51  1  0  0  0  0 
 19 52  1  0  0  0  0 
 20 53  1  0  0  0  0 
 20 54  1  0  0  0  0 
 21 22  1  0  0  0  0 
 21 24  1  0  0  0  0 
 23 25  2  0  0  0  0 
 23 55  1  0  0  0  0 
 24 27  2  0  0  0  0 
 24 56  1  0  0  0  0 
 25 27  1  0  0  0  0 
 26 28  2  0  0  0  0 
 26 57  1  0  0  0  0 
 27 58  1  0  0  0  0 
 28 29  1  0  0  0  0 
 28 59  1  0  0  0  0 
 29 60  1  0  0  0  0 
 30 61  1  0  0  0  0 
 30 62  1  0  0  0  0 
 30 63  1  0  0  0  0 
M  CHG  1   4   1
M  END
> <cdk:Title>
42395249

> <cdk:Remark>
null

> <PUBCHEM_COMPOUND_CID>
42395249

> <PUBCHEM_COMPOUND_CANONICALIZED>
1

> <PUBCHEM_CACTVS_COMPLEXITY>
535

> <PUBCHEM_CACTVS_HBOND_ACCEPTOR>
4

> <PUBCHEM_CACTVS_HBOND_DONOR>
1

> <PUBCHEM_CACTVS_ROTATABLE_BOND>
8

> <PUBCHEM_CACTVS_SUBSKEYS>
AAADcfB7sAAAAAAAAAAAAAAAAAAAAWLAAAA8QAAAAAAAAAABwAAAHgAYAAAADBThmgY+hpPIBACqAjF3VACSDAA1ogAY2KE+bNgMJ7bE9VuGvWjn/hXIqYeY/C7OIAAACAAIAABAAAAQABAAAAAAAAAAAA==

> <PUBCHEM_IUPAC_OPENEYE_NAME>
[4-methoxy-2-[1-(3-pyrazol-1-ylpropyl)piperidin-1-ium-4-yl]oxy-phenyl]-pyrrolidin-1-yl-methanone

> <PUBCHEM_IUPAC_CAS_NAME>
[4-methoxy-2-[[1-[3-(1-pyrazolyl)propyl]-4-piperidin-1-iumyl]oxy]phenyl]-(1-pyrrolidinyl)methanone

> <PUBCHEM_IUPAC_NAME>
[4-methoxy-2-[1-(3-pyrazol-1-ylpropyl)piperidin-1-ium-4-yl]oxyphenyl]-pyrrolidin-1-ylmethanone

> <PUBCHEM_IUPAC_SYSTEMATIC_NAME>
[4-methoxy-2-[1-(3-pyrazol-1-ylpropyl)piperidin-1-ium-4-yl]oxy-phenyl]-pyrrolidin-1-yl-methanone

> <PUBCHEM_IUPAC_TRADITIONAL_NAME>
[4-methoxy-2-[1-(3-pyrazol-1-ylpropyl)piperidin-1-ium-4-yl]oxy-phenyl]-pyrrolidino-methanone

> <PUBCHEM_IUPAC_INCHI>
InChI=1S/C23H32N4O3/c1-29-20-6-7-21(23(28)26-12-2-3-13-26)22(18-20)30-19-8-16-25(17-9-19)11-5-15-27-14-4-10-24-27/h4,6-7,10,14,18-19H,2-3,5,8-9,11-13,15-17H2,1H3/p+1

> <PUBCHEM_IUPAC_INCHIKEY>
ABGHGCKKXFTRMG-UHFFFAOYSA-O

> <PUBCHEM_XLOGP3_AA>
2.7

> <PUBCHEM_EXACT_MASS>
413.255266

> <PUBCHEM_MOLECULAR_FORMULA>
C23H33N4O3+

> <PUBCHEM_MOLECULAR_WEIGHT>
413.53312

> <PUBCHEM_OPENEYE_CAN_SMILES>
COC1=CC(=C(C=C1)C(=O)N2CCCC2)OC3CC[NH+](CC3)CCCN4C=CC=N4

> <PUBCHEM_OPENEYE_ISO_SMILES>
COC1=CC(=C(C=C1)C(=O)N2CCCC2)OC3CC[NH+](CC3)CCCN4C=CC=N4

> <PUBCHEM_CACTVS_TPSA>
61

> <PUBCHEM_MONOISOTOPIC_WEIGHT>
413.255266

> <PUBCHEM_TOTAL_CHARGE>
1

> <PUBCHEM_HEAVY_ATOM_COUNT>
30

> <PUBCHEM_ATOM_DEF_STEREO_COUNT>
0

> <PUBCHEM_ATOM_UDEF_STEREO_COUNT>
0

> <PUBCHEM_BOND_DEF_STEREO_COUNT>
0

> <PUBCHEM_BOND_UDEF_STEREO_COUNT>
0

> <PUBCHEM_ISOTOPIC_ATOM_COUNT>
0

> <PUBCHEM_COMPONENT_COUNT>
1

> <PUBCHEM_CACTVS_TAUTO_COUNT>
1

> <PUBCHEM_COORDINATE_TYPE>
1

> <PUBCHEM_BONDANNOTATIONS>
16  21  8

$$$$
