47862991
  CDK     0202151413

 45 47  0  0  0  0  0  0  0  0999 V2000
    4.5981    0.1682    0.0000 Br  0  0  0  0  0  0  0  0  0  0  0  0
   10.0109    2.8706    0.0000 O   0  0  0  0  0  0  0  0  0  0  0  0
    5.4641   -1.3318    0.0000 O   0  0  0  0  0  0  0  0  0  0  0  0
    6.3301    0.1682    0.0000 O   0  0  0  0  0  0  0  0  0  0  0  0
    8.0622    0.1682    0.0000 N   0  0  0  0  0  0  0  0  0  0  0  0
   10.5109    2.0046    0.0000 N   0  0  0  0  0  0  0  0  0  0  0  0
    8.9282    1.6682    0.0000 C   0  0  0  0  0  0  0  0  0  0  0  0
    8.0622    1.1682    0.0000 C   0  0  0  0  0  0  0  0  0  0  0  0
    9.0327    2.6627    0.0000 C   0  0  0  0  0  0  0  0  0  0  0  0
    9.8418    1.2614    0.0000 C   0  0  0  0  0  0  0  0  0  0  0  0
    7.1962   -1.3318    0.0000 C   0  0  0  0  0  0  0  0  0  0  0  0
    7.1962   -0.3318    0.0000 C   0  0  0  0  0  0  0  0  0  0  0  0
    6.3301   -1.8318    0.0000 C   0  0  0  0  0  0  0  0  0  0  0  0
    4.5981   -1.8318    0.0000 C   0  0  0  0  0  0  0  0  0  0  0  0
    8.2896    3.3318    0.0000 C   0  0  0  0  0  0  0  0  0  0  0  0
   10.0497    0.2833    0.0000 C   0  0  0  0  0  0  0  0  0  0  0  0
    8.0622   -1.8318    0.0000 C   0  0  0  0  0  0  0  0  0  0  0  0
    3.7320   -1.3318    0.0000 C   0  0  0  0  0  0  0  0  0  0  0  0
    6.3301   -2.8318    0.0000 C   0  0  0  0  0  0  0  0  0  0  0  0
    8.0622   -2.8318    0.0000 C   0  0  0  0  0  0  0  0  0  0  0  0
    7.1962   -3.3318    0.0000 C   0  0  0  0  0  0  0  0  0  0  0  0
    3.7320   -0.3318    0.0000 C   0  0  0  0  0  0  0  0  0  0  0  0
    2.8660   -1.8318    0.0000 C   0  0  0  0  0  0  0  0  0  0  0  0
    2.8660    0.1682    0.0000 C   0  0  0  0  0  0  0  0  0  0  0  0
    2.0000   -1.3318    0.0000 C   0  0  0  0  0  0  0  0  0  0  0  0
    2.0000   -0.3318    0.0000 C   0  0  0  0  0  0  0  0  0  0  0  0
    7.8501    1.7508    0.0000 H   0  0  0  0  0  0  0  0  0  0  0  0
    7.4516    1.0605    0.0000 H   0  0  0  0  0  0  0  0  0  0  0  0
    8.5991   -0.1418    0.0000 H   0  0  0  0  0  0  0  0  0  0  0  0
    4.1996   -2.3068    0.0000 H   0  0  0  0  0  0  0  0  0  0  0  0
    4.9966   -2.3068    0.0000 H   0  0  0  0  0  0  0  0  0  0  0  0
    8.7044    3.7926    0.0000 H   0  0  0  0  0  0  0  0  0  0  0  0
    7.8288    3.7467    0.0000 H   0  0  0  0  0  0  0  0  0  0  0  0
    7.8747    2.8711    0.0000 H   0  0  0  0  0  0  0  0  0  0  0  0
    9.4432    0.1544    0.0000 H   0  0  0  0  0  0  0  0  0  0  0  0
   10.1786   -0.3232    0.0000 H   0  0  0  0  0  0  0  0  0  0  0  0
   10.6561    0.4122    0.0000 H   0  0  0  0  0  0  0  0  0  0  0  0
    8.5991   -1.5218    0.0000 H   0  0  0  0  0  0  0  0  0  0  0  0
    5.7932   -3.1418    0.0000 H   0  0  0  0  0  0  0  0  0  0  0  0
    8.5991   -3.1418    0.0000 H   0  0  0  0  0  0  0  0  0  0  0  0
    7.1962   -3.9518    0.0000 H   0  0  0  0  0  0  0  0  0  0  0  0
    2.8660   -2.4518    0.0000 H   0  0  0  0  0  0  0  0  0  0  0  0
    2.8660    0.7882    0.0000 H   0  0  0  0  0  0  0  0  0  0  0  0
    1.4631   -1.6418    0.0000 H   0  0  0  0  0  0  0  0  0  0  0  0
    1.4631   -0.0218    0.0000 H   0  0  0  0  0  0  0  0  0  0  0  0
  1 22  1  0  0  0  0 
  2  6  1  0  0  0  0 
  2  9  1  0  0  0  0 
  3 13  1  0  0  0  0 
  3 14  1  0  0  0  0 
  4 12  2  0  0  0  0 
  5  8  1  0  0  0  0 
  5 12  1  0  0  0  0 
  5 29  1  0  0  0  0 
  6 10  2  0  0  0  0 
  7  8  1  0  0  0  0 
  7  9  2  0  0  0  0 
  7 10  1  0  0  0  0 
  8 27  1  0  0  0  0 
  8 28  1  0  0  0  0 
  9 15  1  0  0  0  0 
 10 16  1  0  0  0  0 
 11 12  1  0  0  0  0 
 11 13  1  0  0  0  0 
 11 17  2  0  0  0  0 
 13 19  2  0  0  0  0 
 14 18  1  0  0  0  0 
 14 30  1  0  0  0  0 
 14 31  1  0  0  0  0 
 15 32  1  0  0  0  0 
 15 33  1  0  0  0  0 
 15 34  1  0  0  0  0 
 16 35  1  0  0  0  0 
 16 36  1  0  0  0  0 
 16 37  1  0  0  0  0 
 17 20  1  0  0  0  0 
 17 38  1  0  0  0  0 
 18 22  1  0  0  0  0 
 18 23  2  0  0  0  0 
 19 21  1  0  0  0  0 
 19 39  1  0  0  0  0 
 20 21  2  0  0  0  0 
 20 40  1  0  0  0  0 
 21 41  1  0  0  0  0 
 22 24  2  0  0  0  0 
 23 25  1  0  0  0  0 
 23 42  1  0  0  0  0 
 24 26  1  0  0  0  0 
 24 43  1  0  0  0  0 
 25 26  2  0  0  0  0 
 25 44  1  0  0  0  0 
 26 45  1  0  0  0  0 
M  END
> <cdk:Title>
47862991

> <cdk:Remark>
null

> <PUBCHEM_COMPOUND_CID>
47862991

> <PUBCHEM_COMPOUND_CANONICALIZED>
1

> <PUBCHEM_CACTVS_COMPLEXITY>
464

> <PUBCHEM_CACTVS_HBOND_ACCEPTOR>
4

> <PUBCHEM_CACTVS_HBOND_DONOR>
1

> <PUBCHEM_CACTVS_ROTATABLE_BOND>
6

> <PUBCHEM_CACTVS_SUBSKEYS>
AAADceB7MAAAEAAAAAAAAAAAAAAAAWAAAAAwYAAAAAAAAAAB0AAAHgBUAAABrAzhngYyhpLQBACpA6VyUgCCCAAkIAQomKE+TPoMJj6E9ZuGOejm5hmI69eYyCCOAAAAAAAIgAAAAAAAABEAAAAAAAAAAA==

> <PUBCHEM_IUPAC_OPENEYE_NAME>
2-[(2-bromophenyl)methoxy]-N-[(3,5-dimethylisoxazol-4-yl)methyl]benzamide

> <PUBCHEM_IUPAC_CAS_NAME>
2-[(2-bromophenyl)methoxy]-N-[(3,5-dimethyl-4-isoxazolyl)methyl]benzamide

> <PUBCHEM_IUPAC_NAME>
2-[(2-bromophenyl)methoxy]-N-[(3,5-dimethyl-1,2-oxazol-4-yl)methyl]benzamide

> <PUBCHEM_IUPAC_SYSTEMATIC_NAME>
2-[(2-bromophenyl)methoxy]-N-[(3,5-dimethyl-1,2-oxazol-4-yl)methyl]benzamide

> <PUBCHEM_IUPAC_TRADITIONAL_NAME>
2-(2-bromobenzyl)oxy-N-[(3,5-dimethylisoxazol-4-yl)methyl]benzamide

> <PUBCHEM_IUPAC_INCHI>
InChI=1S/C20H19BrN2O3/c1-13-17(14(2)26-23-13)11-22-20(24)16-8-4-6-10-19(16)25-12-15-7-3-5-9-18(15)21/h3-10H,11-12H2,1-2H3,(H,22,24)

> <PUBCHEM_IUPAC_INCHIKEY>
VKBHIXZSKIVTCZ-UHFFFAOYSA-N

> <PUBCHEM_XLOGP3_AA>
4.1

> <PUBCHEM_EXACT_MASS>
414.057905

> <PUBCHEM_MOLECULAR_FORMULA>
C20H19BrN2O3

> <PUBCHEM_MOLECULAR_WEIGHT>
415.28046

> <PUBCHEM_OPENEYE_CAN_SMILES>
CC1=C(C(=NO1)C)CNC(=O)C2=CC=CC=C2OCC3=CC=CC=C3Br

> <PUBCHEM_OPENEYE_ISO_SMILES>
CC1=C(C(=NO1)C)CNC(=O)C2=CC=CC=C2OCC3=CC=CC=C3Br

> <PUBCHEM_CACTVS_TPSA>
64.4

> <PUBCHEM_MONOISOTOPIC_WEIGHT>
414.057905

> <PUBCHEM_TOTAL_CHARGE>
0

> <PUBCHEM_HEAVY_ATOM_COUNT>
26

> <PUBCHEM_ATOM_DEF_STEREO_COUNT>
0

> <PUBCHEM_ATOM_UDEF_STEREO_COUNT>
0

> <PUBCHEM_BOND_DEF_STEREO_COUNT>
0

> <PUBCHEM_BOND_UDEF_STEREO_COUNT>
0

> <PUBCHEM_ISOTOPIC_ATOM_COUNT>
0

> <PUBCHEM_COMPONENT_COUNT>
1

> <PUBCHEM_CACTVS_TAUTO_COUNT>
2

> <PUBCHEM_COORDINATE_TYPE>
1

> <PUBCHEM_BONDANNOTATIONS>
11  13  8

$$$$
