
  CDK     0224152114

 25 29  0  0  0  0  0  0  0  0999 V2000
   14.4194   -1.4060    0.0000 O   0  0  0  0  0  0  0  0  0  0  0  0
   14.4194    0.2035    0.0000 N   0  0  0  0  0  0  0  0  0  0  0  0
   10.8751    0.3988    0.0000 N   0  0  0  0  0  0  0  0  0  0  0  0
    7.5604    0.7352    0.0000 N   0  0  0  0  0  0  0  0  0  0  0  0
    8.0604    1.6012    0.0000 N   0  0  0  0  0  0  0  0  0  0  0  0
    5.9781    1.4397    0.0000 N   0  0  0  0  0  0  0  0  0  0  0  0
    4.9836    1.3352    0.0000 N   0  0  0  0  0  0  0  0  0  0  0  0
   16.0030   -0.6012    0.0000 C   0  0  0  0  0  0  0  0  0  0  0  0
   16.8691   -0.1012    0.0000 C   0  0  0  0  0  0  0  0  0  0  0  0
   16.8691   -1.1012    0.0000 C   0  0  0  0  0  0  0  0  0  0  0  0
   15.0030   -0.6012    0.0000 C   0  0  0  0  0  0  0  0  0  0  0  0
   13.4732   -0.1012    0.0000 C   0  0  0  0  0  0  0  0  0  0  0  0
   13.4732   -1.1012    0.0000 C   0  0  0  0  0  0  0  0  0  0  0  0
   12.6072    0.3988    0.0000 C   0  0  0  0  0  0  0  0  0  0  0  0
   12.6072   -1.6012    0.0000 C   0  0  0  0  0  0  0  0  0  0  0  0
   11.7411   -0.1012    0.0000 C   0  0  0  0  0  0  0  0  0  0  0  0
   11.7411   -1.1012    0.0000 C   0  0  0  0  0  0  0  0  0  0  0  0
    9.1431    0.3988    0.0000 C   0  0  0  0  0  0  0  0  0  0  0  0
   10.0091   -0.1012    0.0000 C   0  0  0  0  0  0  0  0  0  0  0  0
    8.2295   -0.0080    0.0000 C   0  0  0  0  0  0  0  0  0  0  0  0
    9.0385    1.3933    0.0000 C   0  0  0  0  0  0  0  0  0  0  0  0
    6.5659    0.6307    0.0000 C   0  0  0  0  0  0  0  0  0  0  0  0
    6.1591   -0.2829    0.0000 C   0  0  0  0  0  0  0  0  0  0  0  0
    5.1646   -0.3874    0.0000 C   0  0  0  0  0  0  0  0  0  0  0  0
    4.5768    0.4216    0.0000 C   0  0  0  0  0  0  0  0  0  0  0  0
  1 11  1  0  0  0  0 
  1 13  1  0  0  0  0 
  2 11  1  0  0  0  0 
  2 12  1  0  0  0  0 
  3 16  1  0  0  0  0 
  3 19  1  0  0  0  0 
  4  5  1  0  0  0  0 
  4 20  1  0  0  0  0 
  4 22  1  0  0  0  0 
  5 21  1  0  0  0  0 
  6  7  1  0  0  0  0 
  6 22  1  0  0  0  0 
  7 25  1  0  0  0  0 
  8  9  1  0  0  0  0 
  8 10  1  0  0  0  0 
  8 11  1  0  0  0  0 
  9 10  1  0  0  0  0 
 12 13  1  0  0  0  0 
 12 14  1  0  0  0  0 
 13 15  1  0  0  0  0 
 14 16  1  0  0  0  0 
 15 17  1  0  0  0  0 
 16 17  1  0  0  0  0 
 18 19  1  0  0  0  0 
 18 20  1  0  0  0  0 
 18 21  1  0  0  0  0 
 22 23  1  0  0  0  0 
 23 24  1  0  0  0  0 
 24 25  1  0  0  0  0 
M  END
> <PUBCHEM_COMPOUND_CID>
40382685

$$$$
