29881511
  CDK     1229141544

 45 47  0  0  0  0  0  0  0  0999 V2000
    4.5981    3.5670    0.0000 O   0  0  0  0  0  0  0  0  0  0  0  0
    2.0000   -3.9330    0.0000 O   0  0  0  0  0  0  0  0  0  0  0  0
    5.4641    2.0670    0.0000 N   0  0  0  0  0  0  0  0  0  0  0  0
    3.7320   -2.9330    0.0000 N   0  0  0  0  0  0  0  0  0  0  0  0
    7.3301    3.5670    0.0000 C   0  0  2  0  0  0  0  0  0  0  0  0
    6.3301    3.5670    0.0000 C   0  0  2  0  0  0  0  0  0  0  0  0
    6.8301    4.4330    0.0000 C   0  0  0  0  0  0  0  0  0  0  0  0
    8.1962    3.0670    0.0000 C   0  0  0  0  0  0  0  0  0  0  0  0
    5.4641    3.0670    0.0000 C   0  0  0  0  0  0  0  0  0  0  0  0
    4.5981    1.5670    0.0000 C   0  0  0  0  0  0  0  0  0  0  0  0
    4.5981    0.5670    0.0000 C   0  0  0  0  0  0  0  0  0  0  0  0
    4.5981   -2.4330    0.0000 C   0  0  0  0  0  0  0  0  0  0  0  0
    2.8660   -2.4330    0.0000 C   0  0  0  0  0  0  0  0  0  0  0  0
    3.7320   -3.9330    0.0000 C   0  0  0  0  0  0  0  0  0  0  0  0
    4.5981   -1.4330    0.0000 C   0  0  0  0  0  0  0  0  0  0  0  0
    2.8660   -4.4330    0.0000 C   0  0  0  0  0  0  0  0  0  0  0  0
    2.0000   -2.9330    0.0000 C   0  0  0  0  0  0  0  0  0  0  0  0
    3.7320    0.0670    0.0000 C   0  0  0  0  0  0  0  0  0  0  0  0
    5.4641    0.0670    0.0000 C   0  0  0  0  0  0  0  0  0  0  0  0
    3.7320   -0.9330    0.0000 C   0  0  0  0  0  0  0  0  0  0  0  0
    5.4641   -0.9330    0.0000 C   0  0  0  0  0  0  0  0  0  0  0  0
    7.7685    4.0054    0.0000 H   0  0  0  0  0  0  0  0  0  0  0  0
    5.8917    4.0054    0.0000 H   0  0  0  0  0  0  0  0  0  0  0  0
    7.3051    4.8315    0.0000 H   0  0  0  0  0  0  0  0  0  0  0  0
    6.3552    4.8315    0.0000 H   0  0  0  0  0  0  0  0  0  0  0  0
    7.8862    2.5300    0.0000 H   0  0  0  0  0  0  0  0  0  0  0  0
    8.7331    2.7570    0.0000 H   0  0  0  0  0  0  0  0  0  0  0  0
    8.5062    3.6039    0.0000 H   0  0  0  0  0  0  0  0  0  0  0  0
    6.0010    1.7570    0.0000 H   0  0  0  0  0  0  0  0  0  0  0  0
    4.3860    2.1496    0.0000 H   0  0  0  0  0  0  0  0  0  0  0  0
    3.9875    1.4593    0.0000 H   0  0  0  0  0  0  0  0  0  0  0  0
    4.8101   -3.0156    0.0000 H   0  0  0  0  0  0  0  0  0  0  0  0
    5.2087   -2.3253    0.0000 H   0  0  0  0  0  0  0  0  0  0  0  0
    3.9441   -4.5156    0.0000 H   0  0  0  0  0  0  0  0  0  0  0  0
    4.3426   -3.8254    0.0000 H   0  0  0  0  0  0  0  0  0  0  0  0
    3.2646   -1.9581    0.0000 H   0  0  0  0  0  0  0  0  0  0  0  0
    2.4675   -1.9581    0.0000 H   0  0  0  0  0  0  0  0  0  0  0  0
    2.4675   -4.9080    0.0000 H   0  0  0  0  0  0  0  0  0  0  0  0
    3.2646   -4.9080    0.0000 H   0  0  0  0  0  0  0  0  0  0  0  0
    1.7880   -2.3504    0.0000 H   0  0  0  0  0  0  0  0  0  0  0  0
    1.3894   -3.0407    0.0000 H   0  0  0  0  0  0  0  0  0  0  0  0
    3.1951    0.3770    0.0000 H   0  0  0  0  0  0  0  0  0  0  0  0
    6.0010    0.3770    0.0000 H   0  0  0  0  0  0  0  0  0  0  0  0
    3.1951   -1.2430    0.0000 H   0  0  0  0  0  0  0  0  0  0  0  0
    6.0010   -1.2430    0.0000 H   0  0  0  0  0  0  0  0  0  0  0  0
  1  9  2  0  0  0  0 
  2 16  1  0  0  0  0 
  2 17  1  0  0  0  0 
  3  9  1  0  0  0  0 
  3 10  1  0  0  0  0 
  3 29  1  0  0  0  0 
  4 12  1  0  0  0  0 
  4 13  1  0  0  0  0 
  4 14  1  0  0  0  0 
  5  6  1  0  0  0  0 
  5  7  1  0  0  0  0 
  5  8  1  6  0  0  0 
  5 22  1  0  0  0  0 
  6  7  1  0  0  0  0 
  6  9  1  1  0  0  0 
  6 23  1  0  0  0  0 
  7 24  1  0  0  0  0 
  7 25  1  0  0  0  0 
  8 26  1  0  0  0  0 
  8 27  1  0  0  0  0 
  8 28  1  0  0  0  0 
 10 11  1  0  0  0  0 
 10 30  1  0  0  0  0 
 10 31  1  0  0  0  0 
 11 18  2  0  0  0  0 
 11 19  1  0  0  0  0 
 12 15  1  0  0  0  0 
 12 32  1  0  0  0  0 
 12 33  1  0  0  0  0 
 13 17  1  0  0  0  0 
 13 36  1  0  0  0  0 
 13 37  1  0  0  0  0 
 14 16  1  0  0  0  0 
 14 34  1  0  0  0  0 
 14 35  1  0  0  0  0 
 15 20  2  0  0  0  0 
 15 21  1  0  0  0  0 
 16 38  1  0  0  0  0 
 16 39  1  0  0  0  0 
 17 40  1  0  0  0  0 
 17 41  1  0  0  0  0 
 18 20  1  0  0  0  0 
 18 42  1  0  0  0  0 
 19 21  2  0  0  0  0 
 19 43  1  0  0  0  0 
 20 44  1  0  0  0  0 
 21 45  1  0  0  0  0 
M  END
> <cdk:Title>
29881511

> <cdk:Remark>
null

> <PUBCHEM_COMPOUND_CID>
29881511

> <PUBCHEM_COMPOUND_CANONICALIZED>
1

> <PUBCHEM_CACTVS_COMPLEXITY>
347

> <PUBCHEM_CACTVS_HBOND_ACCEPTOR>
3

> <PUBCHEM_CACTVS_HBOND_DONOR>
1

> <PUBCHEM_CACTVS_ROTATABLE_BOND>
5

> <PUBCHEM_CACTVS_SUBSKEYS>
AAADceB7MAAAAAAAAAAAAAAAGAAAAAAAAAA8QAAAAAAAAAABAAAAHgAQAAAADQDhmAYyAIPABACIAiFSEACCAAAgAAAIiIEIBIgKIDKAkRGHIAhglgCYiAcYgAAOQAAAAAAAAACAAAAAAAAAAAAAAAAAAA==

> <PUBCHEM_IUPAC_OPENEYE_NAME>
(1S,2S)-2-methyl-N-[[4-(morpholinomethyl)phenyl]methyl]cyclopropanecarboxamide

> <PUBCHEM_IUPAC_CAS_NAME>
(1S,2S)-2-methyl-N-[[4-(4-morpholinylmethyl)phenyl]methyl]-1-cyclopropanecarboxamide

> <PUBCHEM_IUPAC_NAME>
(1S,2S)-2-methyl-N-[[4-(morpholin-4-ylmethyl)phenyl]methyl]cyclopropane-1-carboxamide

> <PUBCHEM_IUPAC_SYSTEMATIC_NAME>
(1S,2S)-2-methyl-N-[[4-(morpholin-4-ylmethyl)phenyl]methyl]cyclopropane-1-carboxamide

> <PUBCHEM_IUPAC_TRADITIONAL_NAME>
(1S,2S)-2-methyl-N-[4-(morpholinomethyl)benzyl]cyclopropanecarboxamide

> <PUBCHEM_IUPAC_INCHI>
InChI=1S/C17H24N2O2/c1-13-10-16(13)17(20)18-11-14-2-4-15(5-3-14)12-19-6-8-21-9-7-19/h2-5,13,16H,6-12H2,1H3,(H,18,20)/t13-,16-/m0/s1

> <PUBCHEM_IUPAC_INCHIKEY>
KWOOIDRCGLUQQV-BBRMVZONSA-N

> <PUBCHEM_XLOGP3_AA>
1.4

> <PUBCHEM_EXACT_MASS>
288.183778

> <PUBCHEM_MOLECULAR_FORMULA>
C17H24N2O2

> <PUBCHEM_MOLECULAR_WEIGHT>
288.38466

> <PUBCHEM_OPENEYE_CAN_SMILES>
CC1CC1C(=O)NCC2=CC=C(C=C2)CN3CCOCC3

> <PUBCHEM_OPENEYE_ISO_SMILES>
C[C@H]1C[C@@H]1C(=O)NCC2=CC=C(C=C2)CN3CCOCC3

> <PUBCHEM_CACTVS_TPSA>
41.6

> <PUBCHEM_MONOISOTOPIC_WEIGHT>
288.183778

> <PUBCHEM_TOTAL_CHARGE>
0

> <PUBCHEM_HEAVY_ATOM_COUNT>
21

> <PUBCHEM_ATOM_DEF_STEREO_COUNT>
2

> <PUBCHEM_ATOM_UDEF_STEREO_COUNT>
0

> <PUBCHEM_BOND_DEF_STEREO_COUNT>
0

> <PUBCHEM_BOND_UDEF_STEREO_COUNT>
0

> <PUBCHEM_ISOTOPIC_ATOM_COUNT>
0

> <PUBCHEM_COMPONENT_COUNT>
1

> <PUBCHEM_CACTVS_TAUTO_COUNT>
2

> <PUBCHEM_COORDINATE_TYPE>
1

> <PUBCHEM_BONDANNOTATIONS>
11  18  8

$$$$
57147570
  CDK     1229141544

 46 49  0  0  0  0  0  0  0  0999 V2000
    7.4149   -1.7058    0.0000 O   0  0  0  0  0  0  0  0  0  0  0  0
    2.0000   -1.7266    0.0000 O   0  0  0  0  0  0  0  0  0  0  0  0
    7.3931    0.3257    0.0000 C   0  0  2  0  0  0  0  0  0  0  0  0
    7.3931    1.3257    0.0000 C   0  0  2  0  0  0  0  0  0  0  0  0
    6.5271   -0.1743    0.0000 C   0  0  1  0  0  0  0  0  0  0  0  0
    5.6610    0.3257    0.0000 C   0  0  2  0  0  0  0  0  0  0  0  0
    6.5271    1.8257    0.0000 C   0  0  0  0  0  0  0  0  0  0  0  0
    5.6610    1.3257    0.0000 C   0  0  0  0  0  0  0  0  0  0  0  0
    8.3393    0.0210    0.0000 C   0  0  0  0  0  0  0  0  0  0  0  0
    8.3393    1.6304    0.0000 C   0  0  0  0  0  0  0  0  0  0  0  0
    4.7510   -0.1811    0.0000 C   0  0  2  0  0  0  0  0  0  0  0  0
    6.5431   -1.2158    0.0000 C   0  0  2  0  0  0  0  0  0  0  0  0
    8.9229    0.8257    0.0000 C   0  0  0  0  0  0  0  0  0  0  0  0
    7.3931    2.3257    0.0000 C   0  0  0  0  0  0  0  0  0  0  0  0
    5.6451   -1.7436    0.0000 C   0  0  0  0  0  0  0  0  0  0  0  0
    4.7430   -1.2227    0.0000 C   0  0  0  0  0  0  0  0  0  0  0  0
    3.8242    0.3829    0.0000 C   0  0  0  0  0  0  0  0  0  0  0  0
    2.8763   -0.1450    0.0000 C   0  0  0  0  0  0  0  0  0  0  0  0
    3.8076   -1.7725    0.0000 C   0  0  0  0  0  0  0  0  0  0  0  0
    2.8680   -1.2300    0.0000 C   0  0  0  0  0  0  0  0  0  0  0  0
    7.4830   -0.5195    0.0000 H   0  0  0  0  0  0  0  0  0  0  0  0
    7.2664   -0.5936    0.0000 H   0  0  0  0  0  0  0  0  0  0  0  0
    6.3972    0.7507    0.0000 H   0  0  0  0  0  0  0  0  0  0  0  0
    6.9256    2.3007    0.0000 H   0  0  0  0  0  0  0  0  0  0  0  0
    6.1285    2.3007    0.0000 H   0  0  0  0  0  0  0  0  0  0  0  0
    5.4490    1.9083    0.0000 H   0  0  0  0  0  0  0  0  0  0  0  0
    5.0504    1.2180    0.0000 H   0  0  0  0  0  0  0  0  0  0  0  0
    8.0883   -0.5459    0.0000 H   0  0  0  0  0  0  0  0  0  0  0  0
    8.8767   -0.2882    0.0000 H   0  0  0  0  0  0  0  0  0  0  0  0
    8.8767    1.9397    0.0000 H   0  0  0  0  0  0  0  0  0  0  0  0
    8.0883    2.1974    0.0000 H   0  0  0  0  0  0  0  0  0  0  0  0
    4.7674    0.6687    0.0000 H   0  0  0  0  0  0  0  0  0  0  0  0
    6.5491   -1.8358    0.0000 H   0  0  0  0  0  0  0  0  0  0  0  0
    9.3838    0.4110    0.0000 H   0  0  0  0  0  0  0  0  0  0  0  0
    9.3838    1.2404    0.0000 H   0  0  0  0  0  0  0  0  0  0  0  0
    8.0131    2.3257    0.0000 H   0  0  0  0  0  0  0  0  0  0  0  0
    7.3931    2.9457    0.0000 H   0  0  0  0  0  0  0  0  0  0  0  0
    6.7731    2.3257    0.0000 H   0  0  0  0  0  0  0  0  0  0  0  0
    5.2478   -2.2195    0.0000 H   0  0  0  0  0  0  0  0  0  0  0  0
    6.0460   -2.2164    0.0000 H   0  0  0  0  0  0  0  0  0  0  0  0
    4.2324    0.8496    0.0000 H   0  0  0  0  0  0  0  0  0  0  0  0
    3.4343    0.8650    0.0000 H   0  0  0  0  0  0  0  0  0  0  0  0
    2.6718    0.4403    0.0000 H   0  0  0  0  0  0  0  0  0  0  0  0
    2.2647   -0.2464    0.0000 H   0  0  0  0  0  0  0  0  0  0  0  0
    3.8100   -2.3925    0.0000 H   0  0  0  0  0  0  0  0  0  0  0  0
    7.4220   -2.3257    0.0000 H   0  0  0  0  0  0  0  0  0  0  0  0
 12  1  1  1  0  0  0 
  1 46  1  0  0  0  0 
  2 20  2  0  0  0  0 
  3  4  1  0  0  0  0 
  3  5  1  0  0  0  0 
  3  9  1  0  0  0  0 
  3 21  1  6  0  0  0 
  4  7  1  0  0  0  0 
  4 10  1  0  0  0  0 
  4 14  1  1  0  0  0 
  5  6  1  0  0  0  0 
  5 12  1  0  0  0  0 
  5 22  1  1  0  0  0 
  6  8  1  0  0  0  0 
  6 11  1  0  0  0  0 
  6 23  1  6  0  0  0 
  7  8  1  0  0  0  0 
  7 24  1  0  0  0  0 
  7 25  1  0  0  0  0 
  8 26  1  0  0  0  0 
  8 27  1  0  0  0  0 
  9 13  1  0  0  0  0 
  9 28  1  0  0  0  0 
  9 29  1  0  0  0  0 
 10 13  1  0  0  0  0 
 10 30  1  0  0  0  0 
 10 31  1  0  0  0  0 
 11 16  1  0  0  0  0 
 11 17  1  0  0  0  0 
 11 32  1  1  0  0  0 
 12 15  1  0  0  0  0 
 12 33  1  0  0  0  0 
 13 34  1  0  0  0  0 
 13 35  1  0  0  0  0 
 14 36  1  0  0  0  0 
 14 37  1  0  0  0  0 
 14 38  1  0  0  0  0 
 15 16  1  0  0  0  0 
 15 39  1  0  0  0  0 
 15 40  1  0  0  0  0 
 16 19  2  0  0  0  0 
 17 18  1  0  0  0  0 
 17 41  1  0  0  0  0 
 17 42  1  0  0  0  0 
 18 20  1  0  0  0  0 
 18 43  1  0  0  0  0 
 18 44  1  0  0  0  0 
 19 20  1  0  0  0  0 
 19 45  1  0  0  0  0 
M  END
> <cdk:Title>
57147570

> <cdk:Remark>
null

> <PUBCHEM_COMPOUND_CID>
57147570

> <PUBCHEM_COMPOUND_CANONICALIZED>
1

> <PUBCHEM_CACTVS_COMPLEXITY>
466

> <PUBCHEM_CACTVS_HBOND_ACCEPTOR>
2

> <PUBCHEM_CACTVS_HBOND_DONOR>
1

> <PUBCHEM_CACTVS_ROTATABLE_BOND>
0

> <PUBCHEM_CACTVS_SUBSKEYS>
AAADceB4MAAAAAAAAAAAAAAAAAAAAYAAAAAwYIAAAAAAAGDAAAAAGgAACAAADxSggAICAAAAAgCIAqBSAAAAAAAgAAAACAEAAEgAEBIAAQAAQAAEwAAIAQOIyPCPgAAAAAAAAADAAAYAADAAAAAACAAAAA==

> <PUBCHEM_IUPAC_OPENEYE_NAME>
(7S,8R,9R,10R,13S,14S)-7-hydroxy-13-methyl-2,6,7,8,9,10,11,12,14,15,16,17-dodecahydro-1H-cyclopenta[a]phenanthren-3-one

> <PUBCHEM_IUPAC_CAS_NAME>
(7S,8R,9R,10R,13S,14S)-7-hydroxy-13-methyl-2,6,7,8,9,10,11,12,14,15,16,17-dodecahydro-1H-cyclopenta[a]phenanthren-3-one

> <PUBCHEM_IUPAC_NAME>
(7S,8R,9R,10R,13S,14S)-7-hydroxy-13-methyl-2,6,7,8,9,10,11,12,14,15,16,17-dodecahydro-1H-cyclopenta[a]phenanthren-3-one

> <PUBCHEM_IUPAC_SYSTEMATIC_NAME>
(7S,8R,9R,10R,13S,14S)-13-methyl-7-oxidanyl-2,6,7,8,9,10,11,12,14,15,16,17-dodecahydro-1H-cyclopenta[a]phenanthren-3-one

> <PUBCHEM_IUPAC_TRADITIONAL_NAME>
(7S,8R,9R,10R,13S,14S)-7-hydroxy-13-methyl-2,6,7,8,9,10,11,12,14,15,16,17-dodecahydro-1H-cyclopenta[a]phenanthren-3-one

> <PUBCHEM_IUPAC_INCHI>
InChI=1S/C18H26O2/c1-18-7-2-3-15(18)17-14(6-8-18)13-5-4-12(19)9-11(13)10-16(17)20/h9,13-17,20H,2-8,10H2,1H3/t13-,14+,15-,16-,17+,18-/m0/s1

> <PUBCHEM_IUPAC_INCHIKEY>
GRIITYJCBJMDNU-MULDDASSSA-N

> <PUBCHEM_XLOGP3_AA>
3.3

> <PUBCHEM_EXACT_MASS>
274.19328

> <PUBCHEM_MOLECULAR_FORMULA>
C18H26O2

> <PUBCHEM_MOLECULAR_WEIGHT>
274.39784

> <PUBCHEM_OPENEYE_CAN_SMILES>
CC12CCCC1C3C(CC2)C4CCC(=O)C=C4CC3O

> <PUBCHEM_OPENEYE_ISO_SMILES>
C[C@@]12CCC[C@H]1[C@H]3[C@H](CC2)[C@H]4CCC(=O)C=C4C[C@@H]3O

> <PUBCHEM_CACTVS_TPSA>
37.3

> <PUBCHEM_MONOISOTOPIC_WEIGHT>
274.19328

> <PUBCHEM_TOTAL_CHARGE>
0

> <PUBCHEM_HEAVY_ATOM_COUNT>
20

> <PUBCHEM_ATOM_DEF_STEREO_COUNT>
6

> <PUBCHEM_ATOM_UDEF_STEREO_COUNT>
0

> <PUBCHEM_BOND_DEF_STEREO_COUNT>
0

> <PUBCHEM_BOND_UDEF_STEREO_COUNT>
0

> <PUBCHEM_ISOTOPIC_ATOM_COUNT>
0

> <PUBCHEM_COMPONENT_COUNT>
1

> <PUBCHEM_CACTVS_TAUTO_COUNT>
8

> <PUBCHEM_COORDINATE_TYPE>
1

> <PUBCHEM_BONDANNOTATIONS>
12  1  5

$$$$
57147570
  CDK     1229141544

 46 49  0  0  0  0  0  0  0  0999 V2000
    7.4149   -1.7058    0.0000 O   0  0  0  0  0  0  0  0  0  0  0  0
    2.0000   -1.7266    0.0000 O   0  0  0  0  0  0  0  0  0  0  0  0
    7.3931    0.3257    0.0000 C   0  0  2  0  0  0  0  0  0  0  0  0
    7.3931    1.3257    0.0000 C   0  0  2  0  0  0  0  0  0  0  0  0
    6.5271   -0.1743    0.0000 C   0  0  1  0  0  0  0  0  0  0  0  0
    5.6610    0.3257    0.0000 C   0  0  2  0  0  0  0  0  0  0  0  0
    6.5271    1.8257    0.0000 C   0  0  0  0  0  0  0  0  0  0  0  0
    5.6610    1.3257    0.0000 C   0  0  0  0  0  0  0  0  0  0  0  0
    8.3393    0.0210    0.0000 C   0  0  0  0  0  0  0  0  0  0  0  0
    8.3393    1.6304    0.0000 C   0  0  0  0  0  0  0  0  0  0  0  0
    4.7510   -0.1811    0.0000 C   0  0  2  0  0  0  0  0  0  0  0  0
    6.5431   -1.2158    0.0000 C   0  0  2  0  0  0  0  0  0  0  0  0
    8.9229    0.8257    0.0000 C   0  0  0  0  0  0  0  0  0  0  0  0
    7.3931    2.3257    0.0000 C   0  0  0  0  0  0  0  0  0  0  0  0
    5.6451   -1.7436    0.0000 C   0  0  0  0  0  0  0  0  0  0  0  0
    4.7430   -1.2227    0.0000 C   0  0  0  0  0  0  0  0  0  0  0  0
    3.8242    0.3829    0.0000 C   0  0  0  0  0  0  0  0  0  0  0  0
    2.8763   -0.1450    0.0000 C   0  0  0  0  0  0  0  0  0  0  0  0
    3.8076   -1.7725    0.0000 C   0  0  0  0  0  0  0  0  0  0  0  0
    2.8680   -1.2300    0.0000 C   0  0  0  0  0  0  0  0  0  0  0  0
    7.4830   -0.5195    0.0000 H   0  0  0  0  0  0  0  0  0  0  0  0
    7.2664   -0.5936    0.0000 H   0  0  0  0  0  0  0  0  0  0  0  0
    6.3972    0.7507    0.0000 H   0  0  0  0  0  0  0  0  0  0  0  0
    6.9256    2.3007    0.0000 H   0  0  0  0  0  0  0  0  0  0  0  0
    6.1285    2.3007    0.0000 H   0  0  0  0  0  0  0  0  0  0  0  0
    5.4490    1.9083    0.0000 H   0  0  0  0  0  0  0  0  0  0  0  0
    5.0504    1.2180    0.0000 H   0  0  0  0  0  0  0  0  0  0  0  0
    8.0883   -0.5459    0.0000 H   0  0  0  0  0  0  0  0  0  0  0  0
    8.8767   -0.2882    0.0000 H   0  0  0  0  0  0  0  0  0  0  0  0
    8.8767    1.9397    0.0000 H   0  0  0  0  0  0  0  0  0  0  0  0
    8.0883    2.1974    0.0000 H   0  0  0  0  0  0  0  0  0  0  0  0
    4.7674    0.6687    0.0000 H   0  0  0  0  0  0  0  0  0  0  0  0
    6.5491   -1.8358    0.0000 H   0  0  0  0  0  0  0  0  0  0  0  0
    9.3838    0.4110    0.0000 H   0  0  0  0  0  0  0  0  0  0  0  0
    9.3838    1.2404    0.0000 H   0  0  0  0  0  0  0  0  0  0  0  0
    8.0131    2.3257    0.0000 H   0  0  0  0  0  0  0  0  0  0  0  0
    7.3931    2.9457    0.0000 H   0  0  0  0  0  0  0  0  0  0  0  0
    6.7731    2.3257    0.0000 H   0  0  0  0  0  0  0  0  0  0  0  0
    5.2478   -2.2195    0.0000 H   0  0  0  0  0  0  0  0  0  0  0  0
    6.0460   -2.2164    0.0000 H   0  0  0  0  0  0  0  0  0  0  0  0
    4.2324    0.8496    0.0000 H   0  0  0  0  0  0  0  0  0  0  0  0
    3.4343    0.8650    0.0000 H   0  0  0  0  0  0  0  0  0  0  0  0
    2.6718    0.4403    0.0000 H   0  0  0  0  0  0  0  0  0  0  0  0
    2.2647   -0.2464    0.0000 H   0  0  0  0  0  0  0  0  0  0  0  0
    3.8100   -2.3925    0.0000 H   0  0  0  0  0  0  0  0  0  0  0  0
    7.4220   -2.3257    0.0000 H   0  0  0  0  0  0  0  0  0  0  0  0
 12  1  1  1  0  0  0 
  1 46  1  0  0  0  0 
  2 20  2  0  0  0  0 
  3  4  1  0  0  0  0 
  3  5  1  0  0  0  0 
  3  9  1  0  0  0  0 
  3 21  1  6  0  0  0 
  4  7  1  0  0  0  0 
  4 10  1  0  0  0  0 
  4 14  1  1  0  0  0 
  5  6  1  0  0  0  0 
  5 12  1  0  0  0  0 
  5 22  1  1  0  0  0 
  6  8  1  0  0  0  0 
  6 11  1  0  0  0  0 
  6 23  1  6  0  0  0 
  7  8  1  0  0  0  0 
  7 24  1  0  0  0  0 
  7 25  1  0  0  0  0 
  8 26  1  0  0  0  0 
  8 27  1  0  0  0  0 
  9 13  1  0  0  0  0 
  9 28  1  0  0  0  0 
  9 29  1  0  0  0  0 
 10 13  1  0  0  0  0 
 10 30  1  0  0  0  0 
 10 31  1  0  0  0  0 
 11 16  1  0  0  0  0 
 11 17  1  0  0  0  0 
 11 32  1  1  0  0  0 
 12 15  1  0  0  0  0 
 12 33  1  0  0  0  0 
 13 34  1  0  0  0  0 
 13 35  1  0  0  0  0 
 14 36  1  0  0  0  0 
 14 37  1  0  0  0  0 
 14 38  1  0  0  0  0 
 15 16  1  0  0  0  0 
 15 39  1  0  0  0  0 
 15 40  1  0  0  0  0 
 16 19  2  0  0  0  0 
 17 18  1  0  0  0  0 
 17 41  1  0  0  0  0 
 17 42  1  0  0  0  0 
 18 20  1  0  0  0  0 
 18 43  1  0  0  0  0 
 18 44  1  0  0  0  0 
 19 20  1  0  0  0  0 
 19 45  1  0  0  0  0 
M  END
> <cdk:Title>
57147570

> <cdk:Remark>
null

> <PUBCHEM_COMPOUND_CID>
57147570

> <PUBCHEM_COMPOUND_CANONICALIZED>
1

> <PUBCHEM_CACTVS_COMPLEXITY>
466

> <PUBCHEM_CACTVS_HBOND_ACCEPTOR>
2

> <PUBCHEM_CACTVS_HBOND_DONOR>
1

> <PUBCHEM_CACTVS_ROTATABLE_BOND>
0

> <PUBCHEM_CACTVS_SUBSKEYS>
AAADceB4MAAAAAAAAAAAAAAAAAAAAYAAAAAwYIAAAAAAAGDAAAAAGgAACAAADxSggAICAAAAAgCIAqBSAAAAAAAgAAAACAEAAEgAEBIAAQAAQAAEwAAIAQOIyPCPgAAAAAAAAADAAAYAADAAAAAACAAAAA==

> <PUBCHEM_IUPAC_OPENEYE_NAME>
(7S,8R,9R,10R,13S,14S)-7-hydroxy-13-methyl-2,6,7,8,9,10,11,12,14,15,16,17-dodecahydro-1H-cyclopenta[a]phenanthren-3-one

> <PUBCHEM_IUPAC_CAS_NAME>
(7S,8R,9R,10R,13S,14S)-7-hydroxy-13-methyl-2,6,7,8,9,10,11,12,14,15,16,17-dodecahydro-1H-cyclopenta[a]phenanthren-3-one

> <PUBCHEM_IUPAC_NAME>
(7S,8R,9R,10R,13S,14S)-7-hydroxy-13-methyl-2,6,7,8,9,10,11,12,14,15,16,17-dodecahydro-1H-cyclopenta[a]phenanthren-3-one

> <PUBCHEM_IUPAC_SYSTEMATIC_NAME>
(7S,8R,9R,10R,13S,14S)-13-methyl-7-oxidanyl-2,6,7,8,9,10,11,12,14,15,16,17-dodecahydro-1H-cyclopenta[a]phenanthren-3-one

> <PUBCHEM_IUPAC_TRADITIONAL_NAME>
(7S,8R,9R,10R,13S,14S)-7-hydroxy-13-methyl-2,6,7,8,9,10,11,12,14,15,16,17-dodecahydro-1H-cyclopenta[a]phenanthren-3-one

> <PUBCHEM_IUPAC_INCHI>
InChI=1S/C18H26O2/c1-18-7-2-3-15(18)17-14(6-8-18)13-5-4-12(19)9-11(13)10-16(17)20/h9,13-17,20H,2-8,10H2,1H3/t13-,14+,15-,16-,17+,18-/m0/s1

> <PUBCHEM_IUPAC_INCHIKEY>
GRIITYJCBJMDNU-MULDDASSSA-N

> <PUBCHEM_XLOGP3_AA>
3.3

> <PUBCHEM_EXACT_MASS>
274.19328

> <PUBCHEM_MOLECULAR_FORMULA>
C18H26O2

> <PUBCHEM_MOLECULAR_WEIGHT>
274.39784

> <PUBCHEM_OPENEYE_CAN_SMILES>
CC12CCCC1C3C(CC2)C4CCC(=O)C=C4CC3O

> <PUBCHEM_OPENEYE_ISO_SMILES>
C[C@@]12CCC[C@H]1[C@H]3[C@H](CC2)[C@H]4CCC(=O)C=C4C[C@@H]3O

> <PUBCHEM_CACTVS_TPSA>
37.3

> <PUBCHEM_MONOISOTOPIC_WEIGHT>
274.19328

> <PUBCHEM_TOTAL_CHARGE>
0

> <PUBCHEM_HEAVY_ATOM_COUNT>
20

> <PUBCHEM_ATOM_DEF_STEREO_COUNT>
6

> <PUBCHEM_ATOM_UDEF_STEREO_COUNT>
0

> <PUBCHEM_BOND_DEF_STEREO_COUNT>
0

> <PUBCHEM_BOND_UDEF_STEREO_COUNT>
0

> <PUBCHEM_ISOTOPIC_ATOM_COUNT>
0

> <PUBCHEM_COMPONENT_COUNT>
1

> <PUBCHEM_CACTVS_TAUTO_COUNT>
8

> <PUBCHEM_COORDINATE_TYPE>
1

> <PUBCHEM_BONDANNOTATIONS>
12  1  5

$$$$
