
  CDK     0202151410

 22 23  0  0  0  0  0  0  0  0999 V2000
    4.0871    0.3448    0.0000 O   0  0  0  0  0  0  0  0  0  0  0  0
    4.9531   -1.1552    0.0000 N   0  0  0  0  0  0  0  0  0  0  0  0
    7.4018    0.6812    0.0000 N   0  0  0  0  0  0  0  0  0  0  0  0
    6.9018    1.5472    0.0000 N   0  0  0  0  0  0  0  0  0  0  0  0
    5.7621   -1.7430    0.0000 C   0  0  2  0  0  0  0  0  0  0  0  0
    5.4531   -2.6941    0.0000 C   0  0  2  0  0  0  0  0  0  0  0  0
    6.7775   -1.5108    0.0000 C   0  0  0  0  0  0  0  0  0  0  0  0
    6.1380   -3.4788    0.0000 C   0  0  0  0  0  0  0  0  0  0  0  0
    4.4531   -2.6941    0.0000 C   0  0  0  0  0  0  0  0  0  0  0  0
    4.1441   -1.7430    0.0000 C   0  0  0  0  0  0  0  0  0  0  0  0
    3.7681   -3.4788    0.0000 C   0  0  0  0  0  0  0  0  0  0  0  0
    4.9531   -0.1552    0.0000 C   0  0  0  0  0  0  0  0  0  0  0  0
    3.1287   -1.5108    0.0000 C   0  0  0  0  0  0  0  0  0  0  0  0
    5.8191    0.3448    0.0000 C   0  0  0  0  0  0  0  0  0  0  0  0
    5.9236    1.3393    0.0000 C   0  0  0  0  0  0  0  0  0  0  0  0
    6.7326   -0.0620    0.0000 C   0  0  0  0  0  0  0  0  0  0  0  0
    5.1805    2.0084    0.0000 C   0  0  0  0  0  0  0  0  0  0  0  0
    8.3963    0.5767    0.0000 C   0  0  0  0  0  0  0  0  0  0  0  0
    4.2294    1.6994    0.0000 C   0  0  0  0  0  0  0  0  0  0  0  0
    5.3884    2.9866    0.0000 C   0  0  0  0  0  0  0  0  0  0  0  0
    3.4863    2.3685    0.0000 C   0  0  0  0  0  0  0  0  0  0  0  0
    4.6453    3.6557    0.0000 C   0  0  0  0  0  0  0  0  0  0  0  0
  1 12  1  0  0  0  0 
  2  5  1  0  0  0  0 
  2 10  1  0  0  0  0 
  2 12  1  0  0  0  0 
  3  4  1  0  0  0  0 
  3 16  1  0  0  0  0 
  3 18  1  0  0  0  0 
  4 15  1  0  0  0  0 
  5  6  1  0  0  0  0 
  5  7  1  0  0  0  0 
  6  8  1  0  0  0  0 
  6  9  1  0  0  0  0 
  9 10  1  0  0  0  0 
  9 11  1  0  0  0  0 
 10 13  1  0  0  0  0 
 12 14  1  0  0  0  0 
 14 15  1  0  0  0  0 
 14 16  1  0  0  0  0 
 15 17  1  0  0  0  0 
 17 19  1  0  0  0  0 
 17 20  1  0  0  0  0 
 19 21  1  0  0  0  0 
 20 22  1  0  0  0  0 
M  END
> <PUBCHEM_COMPOUND_CID>
6596816

$$$$

  CDK     0202151410

 22 23  0  0  0  0  0  0  0  0999 V2000
    4.0871    0.3448    0.0000 O   0  0  0  0  0  0  0  0  0  0  0  0
    4.9531   -1.1552    0.0000 N   0  0  0  0  0  0  0  0  0  0  0  0
    7.4018    0.6812    0.0000 N   0  0  0  0  0  0  0  0  0  0  0  0
    6.9018    1.5472    0.0000 N   0  0  0  0  0  0  0  0  0  0  0  0
    5.7621   -1.7430    0.0000 C   0  0  2  0  0  0  0  0  0  0  0  0
    5.4531   -2.6941    0.0000 C   0  0  2  0  0  0  0  0  0  0  0  0
    6.7775   -1.5108    0.0000 C   0  0  0  0  0  0  0  0  0  0  0  0
    6.1380   -3.4788    0.0000 C   0  0  0  0  0  0  0  0  0  0  0  0
    4.4531   -2.6941    0.0000 C   0  0  0  0  0  0  0  0  0  0  0  0
    4.1441   -1.7430    0.0000 C   0  0  0  0  0  0  0  0  0  0  0  0
    3.7681   -3.4788    0.0000 C   0  0  0  0  0  0  0  0  0  0  0  0
    4.9531   -0.1552    0.0000 C   0  0  0  0  0  0  0  0  0  0  0  0
    3.1287   -1.5108    0.0000 C   0  0  0  0  0  0  0  0  0  0  0  0
    5.8191    0.3448    0.0000 C   0  0  0  0  0  0  0  0  0  0  0  0
    5.9236    1.3393    0.0000 C   0  0  0  0  0  0  0  0  0  0  0  0
    6.7326   -0.0620    0.0000 C   0  0  0  0  0  0  0  0  0  0  0  0
    5.1805    2.0084    0.0000 C   0  0  0  0  0  0  0  0  0  0  0  0
    8.3963    0.5767    0.0000 C   0  0  0  0  0  0  0  0  0  0  0  0
    4.2294    1.6994    0.0000 C   0  0  0  0  0  0  0  0  0  0  0  0
    5.3884    2.9866    0.0000 C   0  0  0  0  0  0  0  0  0  0  0  0
    3.4863    2.3685    0.0000 C   0  0  0  0  0  0  0  0  0  0  0  0
    4.6453    3.6557    0.0000 C   0  0  0  0  0  0  0  0  0  0  0  0
  1 12  1  0  0  0  0 
  2  5  1  0  0  0  0 
  2 10  1  0  0  0  0 
  2 12  1  0  0  0  0 
  3  4  1  0  0  0  0 
  3 16  1  0  0  0  0 
  3 18  1  0  0  0  0 
  4 15  1  0  0  0  0 
  5  6  1  0  0  0  0 
  5  7  1  0  0  0  0 
  6  8  1  0  0  0  0 
  6  9  1  0  0  0  0 
  9 10  1  0  0  0  0 
  9 11  1  0  0  0  0 
 10 13  1  0  0  0  0 
 12 14  1  0  0  0  0 
 14 15  1  0  0  0  0 
 14 16  1  0  0  0  0 
 15 17  1  0  0  0  0 
 17 19  1  0  0  0  0 
 17 20  1  0  0  0  0 
 19 21  1  0  0  0  0 
 20 22  1  0  0  0  0 
M  END
> <PUBCHEM_COMPOUND_CID>
6596816

$$$$
