
  CDK     0202151413

  9  8  0  0  0  0  0  0  0  0999 V2000
    6.5000    1.1651    0.0000 N   0  0  0  0  0  0  0  0  0  0  0  0
    4.5000   -0.5670    0.0000 N   0  0  0  0  0  0  0  0  0  0  0  0
    6.0000    0.2990    0.0000 C   0  0  0  0  0  0  0  0  0  0  0  0
    7.3660    1.6651    0.0000 C   0  0  0  0  0  0  0  0  0  0  0  0
    5.6340    1.6651    0.0000 C   0  0  0  0  0  0  0  0  0  0  0  0
    5.0000    0.2990    0.0000 C   0  0  0  0  0  0  0  0  0  0  0  0
    7.3660    2.6651    0.0000 C   0  0  0  0  0  0  0  0  0  0  0  0
    5.6340    2.6651    0.0000 C   0  0  0  0  0  0  0  0  0  0  0  0
    4.0000   -1.4330    0.0000 C   0  0  0  0  0  0  0  0  0  0  0  0
  1  3  1  0  0  0  0 
  1  4  1  0  0  0  0 
  1  5  1  0  0  0  0 
  2  6  1  0  0  0  0 
  2  9  1  0  0  0  0 
  3  6  1  0  0  0  0 
  4  7  1  0  0  0  0 
  5  8  1  0  0  0  0 
M  CHG  1   1   1
M  CHG  1   2   1
M  END
> <PUBCHEM_COMPOUND_CID>
2398094

$$$$

  CDK     0202151413

  9  8  0  0  0  0  0  0  0  0999 V2000
    6.5000    1.1651    0.0000 N   0  0  0  0  0  0  0  0  0  0  0  0
    4.5000   -0.5670    0.0000 N   0  0  0  0  0  0  0  0  0  0  0  0
    6.0000    0.2990    0.0000 C   0  0  0  0  0  0  0  0  0  0  0  0
    7.3660    1.6651    0.0000 C   0  0  0  0  0  0  0  0  0  0  0  0
    5.6340    1.6651    0.0000 C   0  0  0  0  0  0  0  0  0  0  0  0
    5.0000    0.2990    0.0000 C   0  0  0  0  0  0  0  0  0  0  0  0
    7.3660    2.6651    0.0000 C   0  0  0  0  0  0  0  0  0  0  0  0
    5.6340    2.6651    0.0000 C   0  0  0  0  0  0  0  0  0  0  0  0
    4.0000   -1.4330    0.0000 C   0  0  0  0  0  0  0  0  0  0  0  0
  1  3  1  0  0  0  0 
  1  4  1  0  0  0  0 
  1  5  1  0  0  0  0 
  2  6  1  0  0  0  0 
  2  9  1  0  0  0  0 
  3  6  1  0  0  0  0 
  4  7  1  0  0  0  0 
  5  8  1  0  0  0  0 
M  CHG  1   1   1
M  CHG  1   2   1
M  END
> <PUBCHEM_COMPOUND_CID>
2398094

$$$$
