61297850
  CDK     0202151410

 30 31  0  0  0  0  0  0  0  0999 V2000
    4.5981    1.1550    0.0000 S   0  0  0  0  0  0  0  0  0  0  0  0
    8.0622    1.1550    0.0000 O   0  0  0  0  0  0  0  0  0  0  0  0
    4.5981   -2.8450    0.0000 N   0  0  0  0  0  0  0  0  0  0  0  0
    2.0000    0.6550    0.0000 N   0  0  0  0  0  0  0  0  0  0  0  0
    4.5981    0.1550    0.0000 C   0  0  0  0  0  0  0  0  0  0  0  0
    5.4641    1.6550    0.0000 C   0  0  0  0  0  0  0  0  0  0  0  0
    3.7320   -0.3450    0.0000 C   0  0  0  0  0  0  0  0  0  0  0  0
    6.3301    1.1550    0.0000 C   0  0  0  0  0  0  0  0  0  0  0  0
    5.4641   -0.3450    0.0000 C   0  0  0  0  0  0  0  0  0  0  0  0
    4.5981   -1.8450    0.0000 C   0  0  0  0  0  0  0  0  0  0  0  0
    7.1962    1.6550    0.0000 C   0  0  0  0  0  0  0  0  0  0  0  0
    3.7320   -1.3450    0.0000 C   0  0  0  0  0  0  0  0  0  0  0  0
    5.4641    2.6550    0.0000 C   0  0  0  0  0  0  0  0  0  0  0  0
    5.4641   -1.3450    0.0000 C   0  0  0  0  0  0  0  0  0  0  0  0
    7.1962    2.6550    0.0000 C   0  0  0  0  0  0  0  0  0  0  0  0
    6.3301    3.1550    0.0000 C   0  0  0  0  0  0  0  0  0  0  0  0
    2.8660    0.1550    0.0000 C   0  0  0  0  0  0  0  0  0  0  0  0
    8.9282    1.6550    0.0000 C   0  0  0  0  0  0  0  0  0  0  0  0
    6.3301    0.5350    0.0000 H   0  0  0  0  0  0  0  0  0  0  0  0
    6.0010   -0.0350    0.0000 H   0  0  0  0  0  0  0  0  0  0  0  0
    3.1951   -1.6550    0.0000 H   0  0  0  0  0  0  0  0  0  0  0  0
    4.9272    2.9650    0.0000 H   0  0  0  0  0  0  0  0  0  0  0  0
    6.0010   -1.6550    0.0000 H   0  0  0  0  0  0  0  0  0  0  0  0
    7.7331    2.9650    0.0000 H   0  0  0  0  0  0  0  0  0  0  0  0
    6.3301    3.7750    0.0000 H   0  0  0  0  0  0  0  0  0  0  0  0
    4.0611   -3.1550    0.0000 H   0  0  0  0  0  0  0  0  0  0  0  0
    5.1350   -3.1550    0.0000 H   0  0  0  0  0  0  0  0  0  0  0  0
    9.2382    1.1181    0.0000 H   0  0  0  0  0  0  0  0  0  0  0  0
    9.4651    1.9650    0.0000 H   0  0  0  0  0  0  0  0  0  0  0  0
    8.6182    2.1919    0.0000 H   0  0  0  0  0  0  0  0  0  0  0  0
  1  5  1  0  0  0  0 
  1  6  1  0  0  0  0 
  2 11  1  0  0  0  0 
  2 18  1  0  0  0  0 
  3 10  1  0  0  0  0 
  3 26  1  0  0  0  0 
  3 27  1  0  0  0  0 
  4 17  3  0  0  0  0 
  5  7  2  0  0  0  0 
  5  9  1  0  0  0  0 
  6  8  1  0  0  0  0 
  6 13  2  0  0  0  0 
  7 12  1  0  0  0  0 
  7 17  1  0  0  0  0 
  8 11  2  0  0  0  0 
  8 19  1  0  0  0  0 
  9 14  2  0  0  0  0 
  9 20  1  0  0  0  0 
 10 12  2  0  0  0  0 
 10 14  1  0  0  0  0 
 11 15  1  0  0  0  0 
 12 21  1  0  0  0  0 
 13 16  1  0  0  0  0 
 13 22  1  0  0  0  0 
 14 23  1  0  0  0  0 
 15 16  2  0  0  0  0 
 15 24  1  0  0  0  0 
 16 25  1  0  0  0  0 
 18 28  1  0  0  0  0 
 18 29  1  0  0  0  0 
 18 30  1  0  0  0  0 
M  END
> <cdk:Title>
61297850

> <cdk:Remark>
null

> <PUBCHEM_COMPOUND_CID>
61297850

> <PUBCHEM_COMPOUND_CANONICALIZED>
1

> <PUBCHEM_CACTVS_COMPLEXITY>
314

> <PUBCHEM_CACTVS_HBOND_ACCEPTOR>
4

> <PUBCHEM_CACTVS_HBOND_DONOR>
1

> <PUBCHEM_CACTVS_ROTATABLE_BOND>
3

> <PUBCHEM_CACTVS_SUBSKEYS>
AAADccBzIABAAAAAAAAAAAAAAAAAAAAAAAAwYAAAAAAAAAABQAAAHgQQAAAADAyB2AIyx4BABAiQBiRCQACiCAAgKhAIiBgGbIgMpiKksZuAMCBk0BEo6A+QwAAOAAQARAAEAAAACACIAAgAAAAAAAAAAA==

> <PUBCHEM_IUPAC_OPENEYE_NAME>
5-amino-2-(3-methoxyphenyl)sulfanyl-benzonitrile

> <PUBCHEM_IUPAC_CAS_NAME>
5-amino-2-[(3-methoxyphenyl)thio]benzonitrile

> <PUBCHEM_IUPAC_NAME>
5-amino-2-(3-methoxyphenyl)sulfanylbenzonitrile

> <PUBCHEM_IUPAC_SYSTEMATIC_NAME>
5-azanyl-2-(3-methoxyphenyl)sulfanyl-benzenecarbonitrile

> <PUBCHEM_IUPAC_TRADITIONAL_NAME>
5-amino-2-[(3-methoxyphenyl)thio]benzonitrile

> <PUBCHEM_IUPAC_INCHI>
InChI=1S/C14H12N2OS/c1-17-12-3-2-4-13(8-12)18-14-6-5-11(16)7-10(14)9-15/h2-8H,16H2,1H3

> <PUBCHEM_IUPAC_INCHIKEY>
ATCAGSSRVWZDFB-UHFFFAOYSA-N

> <PUBCHEM_XLOGP3_AA>
3

> <PUBCHEM_EXACT_MASS>
256.067034

> <PUBCHEM_MOLECULAR_FORMULA>
C14H12N2OS

> <PUBCHEM_MOLECULAR_WEIGHT>
256.32288

> <PUBCHEM_OPENEYE_CAN_SMILES>
COC1=CC(=CC=C1)SC2=C(C=C(C=C2)N)C#N

> <PUBCHEM_OPENEYE_ISO_SMILES>
COC1=CC(=CC=C1)SC2=C(C=C(C=C2)N)C#N

> <PUBCHEM_CACTVS_TPSA>
84.3

> <PUBCHEM_MONOISOTOPIC_WEIGHT>
256.067034

> <PUBCHEM_TOTAL_CHARGE>
0

> <PUBCHEM_HEAVY_ATOM_COUNT>
18

> <PUBCHEM_ATOM_DEF_STEREO_COUNT>
0

> <PUBCHEM_ATOM_UDEF_STEREO_COUNT>
0

> <PUBCHEM_BOND_DEF_STEREO_COUNT>
0

> <PUBCHEM_BOND_UDEF_STEREO_COUNT>
0

> <PUBCHEM_ISOTOPIC_ATOM_COUNT>
0

> <PUBCHEM_COMPONENT_COUNT>
1

> <PUBCHEM_CACTVS_TAUTO_COUNT>
1

> <PUBCHEM_COORDINATE_TYPE>
1

> <PUBCHEM_BONDANNOTATIONS>
10  12  8

$$$$
