
  CDK     1227140956

 25 29  0  0  0  0  0  0  0  0999 V2000
    5.9109    0.6624    0.0000 O   0  0  0  0  0  0  0  0  0  0  0  0
    4.1790    0.6824    0.0000 O   0  0  0  0  0  0  0  0  0  0  0  0
    4.9933   -1.8930    0.0000 C   0  0  2  0  0  0  0  0  0  0  0  0
    4.9933   -0.8514    0.0000 C   0  0  0  0  0  0  0  0  0  0  0  0
    5.8994   -0.3376    0.0000 C   0  0  1  0  0  0  0  0  0  0  0  0
    5.8994   -2.4069    0.0000 C   0  0  0  0  0  0  0  0  0  0  0  0
    6.7933   -0.8722    0.0000 C   0  0  0  0  0  0  0  0  0  0  0  0
    6.7933   -1.8722    0.0000 C   0  0  0  0  0  0  0  0  0  0  0  0
    5.0508    1.1724    0.0000 C   0  0  2  0  0  0  0  0  0  0  0  0
    4.2021    2.6823    0.0000 C   0  0  2  0  0  0  0  0  0  0  0  0
    5.0623    2.1723    0.0000 C   0  0  0  0  0  0  0  0  0  0  0  0
    3.3304    2.1923    0.0000 C   0  0  1  0  0  0  0  0  0  0  0  0
    3.3188    1.1924    0.0000 C   0  0  3  0  0  0  0  0  0  0  0  0
    7.6593   -0.3722    0.0000 C   0  0  0  0  0  0  0  0  0  0  0  0
    7.6593   -2.3722    0.0000 C   0  0  0  0  0  0  0  0  0  0  0  0
    8.5254   -0.8722    0.0000 C   0  0  0  0  0  0  0  0  0  0  0  0
    8.5254   -1.8722    0.0000 C   0  0  0  0  0  0  0  0  0  0  0  0
    9.4193   -0.3376    0.0000 C   0  0  0  0  0  0  0  0  0  0  0  0
    9.4193   -2.4069    0.0000 C   0  0  0  0  0  0  0  0  0  0  0  0
   10.3254   -0.8514    0.0000 C   0  0  0  0  0  0  0  0  0  0  0  0
   10.3254   -1.8930    0.0000 C   0  0  0  0  0  0  0  0  0  0  0  0
   11.2565   -0.2945    0.0000 C   0  0  0  0  0  0  0  0  0  0  0  0
   11.2565   -2.4500    0.0000 C   0  0  0  0  0  0  0  0  0  0  0  0
   12.2003   -0.8297    0.0000 C   0  0  0  0  0  0  0  0  0  0  0  0
   12.2003   -1.9147    0.0000 C   0  0  0  0  0  0  0  0  0  0  0  0
  5  1  1  6  0  0  0 
  9  1  1  6  0  0  0 
  2  9  1  0  0  0  0 
  2 13  1  0  0  0  0 
  3  4  1  0  0  0  0 
  3  6  1  0  0  0  0 
  4  5  1  0  0  0  0 
  5  7  1  0  0  0  0 
  6  8  1  0  0  0  0 
  7  8  1  0  0  0  0 
  7 14  1  0  0  0  0 
  8 15  1  0  0  0  0 
  9 11  1  0  0  0  0 
 10 11  1  0  0  0  0 
 10 12  1  0  0  0  0 
 12 13  1  0  0  0  0 
 14 16  1  0  0  0  0 
 15 17  1  0  0  0  0 
 16 17  1  0  0  0  0 
 16 18  1  0  0  0  0 
 17 19  1  0  0  0  0 
 18 20  1  0  0  0  0 
 19 21  1  0  0  0  0 
 20 21  1  0  0  0  0 
 20 22  1  0  0  0  0 
 21 23  1  0  0  0  0 
 22 24  1  0  0  0  0 
 23 25  1  0  0  0  0 
 24 25  1  0  0  0  0 
M  END
> <PUBCHEM_COMPOUND_CID>
70668172

$$$$

  CDK     1227140956

 25 29  0  0  0  0  0  0  0  0999 V2000
    5.5321   -1.8840    0.0000 N   0  0  0  0  0  0  0  0  0  0  0  0
    4.6660   -3.3840    0.0000 N   0  0  0  0  0  0  0  0  0  0  0  0
    6.4783   -1.5792    0.0000 N   0  0  0  0  0  0  0  0  0  0  0  0
    6.4783   -3.1887    0.0000 N   0  0  0  0  0  0  0  0  0  0  0  0
    4.6660   -1.3840    0.0000 C   0  0  3  0  0  0  0  0  0  0  0  0
    3.8000   -1.8840    0.0000 C   0  0  0  0  0  0  0  0  0  0  0  0
    3.8000   -2.8840    0.0000 C   0  0  0  0  0  0  0  0  0  0  0  0
    2.9061   -3.4186    0.0000 C   0  0  0  0  0  0  0  0  0  0  0  0
    2.0000   -2.9048    0.0000 C   0  0  0  0  0  0  0  0  0  0  0  0
    2.0000   -1.8632    0.0000 C   0  0  0  0  0  0  0  0  0  0  0  0
    2.9061   -1.3493    0.0000 C   0  0  0  0  0  0  0  0  0  0  0  0
    4.6660   -0.3840    0.0000 C   0  0  0  0  0  0  0  0  0  0  0  0
    5.5321   -2.8840    0.0000 C   0  0  0  0  0  0  0  0  0  0  0  0
    7.0619   -2.3840    0.0000 C   0  0  0  0  0  0  0  0  0  0  0  0
    5.5321    0.1160    0.0000 C   0  0  0  0  0  0  0  0  0  0  0  0
    3.8000    0.1160    0.0000 C   0  0  0  0  0  0  0  0  0  0  0  0
    8.0619   -2.3840    0.0000 C   0  0  0  0  0  0  0  0  0  0  0  0
    5.5321    1.1160    0.0000 C   0  0  0  0  0  0  0  0  0  0  0  0
    3.8000    1.1160    0.0000 C   0  0  0  0  0  0  0  0  0  0  0  0
    4.6660    1.6160    0.0000 C   0  0  0  0  0  0  0  0  0  0  0  0
    8.5619   -3.2500    0.0000 C   0  0  0  0  0  0  0  0  0  0  0  0
    8.5619   -1.5180    0.0000 C   0  0  0  0  0  0  0  0  0  0  0  0
    9.5619   -3.2500    0.0000 C   0  0  0  0  0  0  0  0  0  0  0  0
    9.5619   -1.5180    0.0000 C   0  0  0  0  0  0  0  0  0  0  0  0
   10.0619   -2.3840    0.0000 C   0  0  0  0  0  0  0  0  0  0  0  0
  1  3  1  0  0  0  0 
  1  5  1  0  0  0  0 
  1 13  1  0  0  0  0 
  2  7  1  0  0  0  0 
  2 13  1  0  0  0  0 
  3 14  1  0  0  0  0 
  4 13  1  0  0  0  0 
  4 14  1  0  0  0  0 
  5  6  1  0  0  0  0 
  5 12  1  0  0  0  0 
  6  7  1  0  0  0  0 
  6 11  1  0  0  0  0 
  7  8  1  0  0  0  0 
  8  9  1  0  0  0  0 
  9 10  1  0  0  0  0 
 10 11  1  0  0  0  0 
 12 15  1  0  0  0  0 
 12 16  1  0  0  0  0 
 14 17  1  0  0  0  0 
 15 18  1  0  0  0  0 
 16 19  1  0  0  0  0 
 17 21  1  0  0  0  0 
 17 22  1  0  0  0  0 
 18 20  1  0  0  0  0 
 19 20  1  0  0  0  0 
 21 23  1  0  0  0  0 
 22 24  1  0  0  0  0 
 23 25  1  0  0  0  0 
 24 25  1  0  0  0  0 
M  END
> <PUBCHEM_COMPOUND_CID>
23905966

$$$$
