
  CDK     0224152114

 20 22  0  0  0  0  0  0  0  0999 V2000
    5.4641    7.2500    0.0000 C   0  0  0  0  0  0  0  0  0  0  0  0
    5.4641    5.2500    0.0000 C   0  0  0  0  0  0  0  0  0  0  0  0
    4.5981    6.7500    0.0000 C   0  0  0  0  0  0  0  0  0  0  0  0
    6.3301    6.7500    0.0000 C   0  0  0  0  0  0  0  0  0  0  0  0
    4.5981    5.7500    0.0000 C   0  0  0  0  0  0  0  0  0  0  0  0
    6.3301    5.7500    0.0000 C   0  0  0  0  0  0  0  0  0  0  0  0
    5.4641    4.2500    0.0000 C   0  0  0  0  0  0  0  0  0  0  0  0
    4.5981    3.7500    0.0000 C   0  0  0  0  0  0  0  0  0  0  0  0
    6.3301    3.7500    0.0000 C   0  0  0  0  0  0  0  0  0  0  0  0
    4.5981    2.7500    0.0000 C   0  0  0  0  0  0  0  0  0  0  0  0
    6.3301    2.7500    0.0000 C   0  0  0  0  0  0  0  0  0  0  0  0
    5.4641    2.2500    0.0000 C   0  0  0  0  0  0  0  0  0  0  0  0
    5.4641    1.2500    0.0000 C   0  0  0  0  0  0  0  0  0  0  0  0
    5.4641    0.2500    0.0000 C   0  0  0  0  0  0  0  0  0  0  0  0
    5.4641   -0.7500    0.0000 C   0  0  0  0  0  0  0  0  0  0  0  0
    5.4641   -2.7500    0.0000 C   0  0  0  0  0  0  0  0  0  0  0  0
    4.5981   -1.2500    0.0000 C   0  0  0  0  0  0  0  0  0  0  0  0
    6.3301   -1.2500    0.0000 C   0  0  0  0  0  0  0  0  0  0  0  0
    4.5981   -2.2500    0.0000 C   0  0  0  0  0  0  0  0  0  0  0  0
    6.3301   -2.2500    0.0000 C   0  0  0  0  0  0  0  0  0  0  0  0
  1  3  1  0  0  0  0 
  1  4  1  0  0  0  0 
  2  5  1  0  0  0  0 
  2  6  1  0  0  0  0 
  2  7  1  0  0  0  0 
  3  5  1  0  0  0  0 
  4  6  1  0  0  0  0 
  7  8  1  0  0  0  0 
  7  9  1  0  0  0  0 
  8 10  1  0  0  0  0 
  9 11  1  0  0  0  0 
 10 12  1  0  0  0  0 
 11 12  1  0  0  0  0 
 12 13  1  0  0  0  0 
 13 14  1  0  0  0  0 
 14 15  1  0  0  0  0 
 15 17  1  0  0  0  0 
 15 18  1  0  0  0  0 
 16 19  1  0  0  0  0 
 16 20  1  0  0  0  0 
 17 19  1  0  0  0  0 
 18 20  1  0  0  0  0 
M  END
> <PUBCHEM_COMPOUND_CID>
15919642

$$$$

  CDK     0224152114

 20 22  0  0  0  0  0  0  0  0999 V2000
    9.7988    0.0670    0.0000 O   0  0  0  0  0  0  0  0  0  0  0  0
    4.2690   -1.1651    0.0000 N   0  0  0  0  0  0  0  0  0  0  0  0
    2.5369   -2.1651    0.0000 N   0  0  0  0  0  0  0  0  0  0  0  0
    5.2152   -0.8603    0.0000 N   0  0  0  0  0  0  0  0  0  0  0  0
    7.2988   -0.7990    0.0000 N   0  0  0  0  0  0  0  0  0  0  0  0
   10.2988    2.6651    0.0000 N   0  0  0  0  0  0  0  0  0  0  0  0
    4.2690   -2.1651    0.0000 C   0  0  0  0  0  0  0  0  0  0  0  0
    3.4030   -0.6651    0.0000 C   0  0  0  0  0  0  0  0  0  0  0  0
    3.4030   -2.6651    0.0000 C   0  0  0  0  0  0  0  0  0  0  0  0
    2.5369   -1.1651    0.0000 C   0  0  0  0  0  0  0  0  0  0  0  0
    5.2152   -2.4698    0.0000 C   0  0  0  0  0  0  0  0  0  0  0  0
    5.7988   -1.6651    0.0000 C   0  0  0  0  0  0  0  0  0  0  0  0
    8.2988   -0.7990    0.0000 C   0  0  0  0  0  0  0  0  0  0  0  0
    8.7988    0.0670    0.0000 C   0  0  3  0  0  0  0  0  0  0  0  0
    6.7988   -1.6651    0.0000 C   0  0  0  0  0  0  0  0  0  0  0  0
   10.2988    0.9330    0.0000 C   0  0  0  0  0  0  0  0  0  0  0  0
   11.2988    0.9330    0.0000 C   0  0  0  0  0  0  0  0  0  0  0  0
    9.7988    1.7990    0.0000 C   0  0  0  0  0  0  0  0  0  0  0  0
   11.7988    1.7990    0.0000 C   0  0  0  0  0  0  0  0  0  0  0  0
   11.2988    2.6651    0.0000 C   0  0  0  0  0  0  0  0  0  0  0  0
  1 14  1  0  0  0  0 
  1 16  1  0  0  0  0 
  2  4  1  0  0  0  0 
  2  7  1  0  0  0  0 
  2  8  1  0  0  0  0 
  3  9  1  0  0  0  0 
  3 10  1  0  0  0  0 
  4 12  1  0  0  0  0 
  5 13  1  0  0  0  0 
  5 15  1  0  0  0  0 
  6 18  1  0  0  0  0 
  6 20  1  0  0  0  0 
  7  9  1  0  0  0  0 
  7 11  1  0  0  0  0 
  8 10  1  0  0  0  0 
 11 12  1  0  0  0  0 
 12 15  1  0  0  0  0 
 13 14  1  0  0  0  0 
 16 17  1  0  0  0  0 
 16 18  1  0  0  0  0 
 17 19  1  0  0  0  0 
 19 20  1  0  0  0  0 
M  END
> <PUBCHEM_COMPOUND_CID>
50980631

$$$$

  CDK     0224152114

 20 22  0  0  0  0  0  0  0  0999 V2000
   12.1901   -0.5600    0.0000 N   0  0  0  0  0  0  0  0  0  0  0  0
   10.6603   -0.0600    0.0000 C   0  0  2  0  0  0  0  0  0  0  0  0
   10.6603   -1.0600    0.0000 C   0  0  1  0  0  0  0  0  0  0  0  0
    9.7942    0.4400    0.0000 C   0  0  2  0  0  0  0  0  0  0  0  0
    9.7942   -1.5600    0.0000 C   0  0  0  0  0  0  0  0  0  0  0  0
    8.9282   -0.0600    0.0000 C   0  0  0  0  0  0  0  0  0  0  0  0
    8.9282   -1.0600    0.0000 C   0  0  0  0  0  0  0  0  0  0  0  0
   11.6065    0.2447    0.0000 C   0  0  0  0  0  0  0  0  0  0  0  0
   11.6065   -1.3647    0.0000 C   0  0  0  0  0  0  0  0  0  0  0  0
    8.0622    0.4400    0.0000 C   0  0  1  0  0  0  0  0  0  0  0  0
    7.1962   -0.0600    0.0000 C   0  0  0  0  0  0  0  0  0  0  0  0
    6.3301    0.4400    0.0000 C   0  0  0  0  0  0  0  0  0  0  0  0
    5.4641   -0.0600    0.0000 C   0  0  0  0  0  0  0  0  0  0  0  0
    4.5981    0.4400    0.0000 C   0  0  0  0  0  0  0  0  0  0  0  0
    3.7320   -0.0600    0.0000 C   0  0  0  0  0  0  0  0  0  0  0  0
    2.8660    0.4400    0.0000 C   0  0  0  0  0  0  0  0  0  0  0  0
    3.7320   -1.0600    0.0000 C   0  0  0  0  0  0  0  0  0  0  0  0
    2.0000   -0.0600    0.0000 C   0  0  0  0  0  0  0  0  0  0  0  0
    2.8660   -1.5600    0.0000 C   0  0  0  0  0  0  0  0  0  0  0  0
    2.0000   -1.0600    0.0000 C   0  0  0  0  0  0  0  0  0  0  0  0
  1  8  1  0  0  0  0 
  1  9  1  0  0  0  0 
  2  3  1  0  0  0  0 
  2  4  1  0  0  0  0 
  2  8  1  0  0  0  0 
  3  5  1  0  0  0  0 
  3  9  1  0  0  0  0 
  4  6  1  0  0  0  0 
  5  7  1  0  0  0  0 
  6  7  1  0  0  0  0 
  6 10  1  0  0  0  0 
 10 11  1  0  0  0  0 
 11 12  1  0  0  0  0 
 12 13  1  0  0  0  0 
 13 14  1  0  0  0  0 
 14 15  1  0  0  0  0 
 15 16  1  0  0  0  0 
 15 17  1  0  0  0  0 
 16 18  1  0  0  0  0 
 17 19  1  0  0  0  0 
 18 20  1  0  0  0  0 
 19 20  1  0  0  0  0 
M  END
> <PUBCHEM_COMPOUND_CID>
23890422

$$$$

  CDK     0224152114

 20 22  0  0  0  0  0  0  0  0999 V2000
    5.4641   -0.7694    0.0000 N   0  0  0  0  0  0  0  0  0  0  0  0
    6.3301    3.7306    0.0000 N   0  0  0  0  0  0  0  0  0  0  0  0
    6.8301    5.2694    0.0000 N   0  0  0  0  0  0  0  0  0  0  0  0
    6.3301   -0.2694    0.0000 C   0  0  2  0  0  0  0  0  0  0  0  0
    4.5981   -1.2694    0.0000 C   0  0  0  0  0  0  0  0  0  0  0  0
    6.3301    0.7306    0.0000 C   0  0  0  0  0  0  0  0  0  0  0  0
    4.5981   -2.2694    0.0000 C   0  0  0  0  0  0  0  0  0  0  0  0
    5.4641    1.2306    0.0000 C   0  0  0  0  0  0  0  0  0  0  0  0
    7.1962    1.2306    0.0000 C   0  0  0  0  0  0  0  0  0  0  0  0
    3.7321   -2.7694    0.0000 C   0  0  0  0  0  0  0  0  0  0  0  0
    6.3301    2.7306    0.0000 C   0  0  0  0  0  0  0  0  0  0  0  0
    5.4641   -2.7694    0.0000 C   0  0  0  0  0  0  0  0  0  0  0  0
    5.4641    2.2306    0.0000 C   0  0  0  0  0  0  0  0  0  0  0  0
    7.1962    2.2306    0.0000 C   0  0  0  0  0  0  0  0  0  0  0  0
    5.4641   -3.7694    0.0000 C   0  0  0  0  0  0  0  0  0  0  0  0
    3.7321   -3.7694    0.0000 C   0  0  0  0  0  0  0  0  0  0  0  0
    4.5981   -4.2694    0.0000 C   0  0  0  0  0  0  0  0  0  0  0  0
    5.5211    4.3184    0.0000 C   0  0  0  0  0  0  0  0  0  0  0  0
    7.1391    4.3184    0.0000 C   0  0  0  0  0  0  0  0  0  0  0  0
    5.8301    5.2694    0.0000 C   0  0  0  0  0  0  0  0  0  0  0  0
  4  1  1  6  0  0  0 
  1  5  1  0  0  0  0 
  2 11  1  0  0  0  0 
  2 18  1  0  0  0  0 
  2 19  1  0  0  0  0 
  3 19  1  0  0  0  0 
  3 20  1  0  0  0  0 
  4  6  1  0  0  0  0 
  5  7  1  0  0  0  0 
  6  8  1  0  0  0  0 
  6  9  1  0  0  0  0 
  7 10  1  0  0  0  0 
  7 12  1  0  0  0  0 
  8 13  1  0  0  0  0 
  9 14  1  0  0  0  0 
 10 16  1  0  0  0  0 
 11 13  1  0  0  0  0 
 11 14  1  0  0  0  0 
 12 15  1  0  0  0  0 
 15 17  1  0  0  0  0 
 16 17  1  0  0  0  0 
 18 20  1  0  0  0  0 
M  CHG  1   1   1
M  END
> <PUBCHEM_COMPOUND_CID>
32660251

$$$$

  CDK     0224152114

 20 22  0  0  0  0  0  0  0  0999 V2000
    4.5981   -0.2500    0.0000 N   0  0  0  0  0  0  0  0  0  0  0  0
    8.0622   -0.2500    0.0000 N   0  0  0  0  0  0  0  0  0  0  0  0
    8.0622    0.7500    0.0000 N   0  0  0  0  0  0  0  0  0  0  0  0
    3.7320   -0.7500    0.0000 C   0  0  0  0  0  0  0  0  0  0  0  0
    2.8660   -0.2500    0.0000 C   0  0  0  0  0  0  0  0  0  0  0  0
    3.7320   -1.7500    0.0000 C   0  0  0  0  0  0  0  0  0  0  0  0
    2.0000   -0.7500    0.0000 C   0  0  0  0  0  0  0  0  0  0  0  0
    2.8660   -2.2500    0.0000 C   0  0  0  0  0  0  0  0  0  0  0  0
    2.0000   -1.7500    0.0000 C   0  0  0  0  0  0  0  0  0  0  0  0
    5.4641   -0.7500    0.0000 C   0  0  0  0  0  0  0  0  0  0  0  0
    6.3301   -0.2500    0.0000 C   0  0  0  0  0  0  0  0  0  0  0  0
    7.1962   -0.7500    0.0000 C   0  0  0  0  0  0  0  0  0  0  0  0
    8.9282   -0.7500    0.0000 C   0  0  0  0  0  0  0  0  0  0  0  0
    9.7942   -0.2500    0.0000 C   0  0  0  0  0  0  0  0  0  0  0  0
    9.7942    0.7500    0.0000 C   0  0  0  0  0  0  0  0  0  0  0  0
    8.9282    1.2500    0.0000 C   0  0  0  0  0  0  0  0  0  0  0  0
   10.6882   -0.7847    0.0000 C   0  0  0  0  0  0  0  0  0  0  0  0
   10.6882    1.2847    0.0000 C   0  0  0  0  0  0  0  0  0  0  0  0
   11.5942   -0.2708    0.0000 C   0  0  0  0  0  0  0  0  0  0  0  0
   11.5942    0.7708    0.0000 C   0  0  0  0  0  0  0  0  0  0  0  0
  1  4  1  0  0  0  0 
  1 10  1  0  0  0  0 
  2  3  1  0  0  0  0 
  2 12  1  0  0  0  0 
  2 13  1  0  0  0  0 
  3 16  1  0  0  0  0 
  4  5  1  0  0  0  0 
  4  6  1  0  0  0  0 
  5  7  1  0  0  0  0 
  6  8  1  0  0  0  0 
  7  9  1  0  0  0  0 
  8  9  1  0  0  0  0 
 10 11  1  0  0  0  0 
 11 12  1  0  0  0  0 
 13 14  1  0  0  0  0 
 14 15  1  0  0  0  0 
 14 17  1  0  0  0  0 
 15 16  1  0  0  0  0 
 15 18  1  0  0  0  0 
 17 19  1  0  0  0  0 
 18 20  1  0  0  0  0 
 19 20  1  0  0  0  0 
M  END
> <PUBCHEM_COMPOUND_CID>
46542740

$$$$

  CDK     0224152114

 20 22  0  0  0  0  0  0  0  0999 V2000
    5.4641    0.0000    0.0000 N   0  0  0  0  0  0  0  0  0  0  0  0
   10.6603    0.0000    0.0000 N   0  0  0  0  0  0  0  0  0  0  0  0
    9.7942   -1.5000    0.0000 N   0  0  0  0  0  0  0  0  0  0  0  0
   11.6065    0.3047    0.0000 N   0  0  0  0  0  0  0  0  0  0  0  0
   11.6065   -1.3047    0.0000 N   0  0  0  0  0  0  0  0  0  0  0  0
    4.5981    0.5000    0.0000 C   0  0  2  0  0  0  0  0  0  0  0  0
    8.0622    0.5000    0.0000 C   0  0  0  0  0  0  0  0  0  0  0  0
    7.1962    0.0000    0.0000 C   0  0  0  0  0  0  0  0  0  0  0  0
    8.9282    0.0000    0.0000 C   0  0  0  0  0  0  0  0  0  0  0  0
    6.3301    0.5000    0.0000 C   0  0  0  0  0  0  0  0  0  0  0  0
    9.7942    0.5000    0.0000 C   0  0  0  0  0  0  0  0  0  0  0  0
    3.7320    0.0000    0.0000 C   0  0  0  0  0  0  0  0  0  0  0  0
    8.9282   -1.0000    0.0000 C   0  0  0  0  0  0  0  0  0  0  0  0
   10.6603   -1.0000    0.0000 C   0  0  0  0  0  0  0  0  0  0  0  0
    3.7320   -1.0000    0.0000 C   0  0  0  0  0  0  0  0  0  0  0  0
    2.8660    0.5000    0.0000 C   0  0  0  0  0  0  0  0  0  0  0  0
    2.8660   -1.5000    0.0000 C   0  0  0  0  0  0  0  0  0  0  0  0
    2.0000    0.0000    0.0000 C   0  0  0  0  0  0  0  0  0  0  0  0
   12.1901   -0.5000    0.0000 C   0  0  0  0  0  0  0  0  0  0  0  0
    2.0000   -1.0000    0.0000 C   0  0  0  0  0  0  0  0  0  0  0  0
  6  1  1  6  0  0  0 
  1 10  1  0  0  0  0 
  2  4  1  0  0  0  0 
  2 11  1  0  0  0  0 
  2 14  1  0  0  0  0 
  3 13  1  0  0  0  0 
  3 14  1  0  0  0  0 
  4 19  1  0  0  0  0 
  5 14  1  0  0  0  0 
  5 19  1  0  0  0  0 
  6 12  1  0  0  0  0 
  7  8  1  0  0  0  0 
  7  9  1  0  0  0  0 
  8 10  1  0  0  0  0 
  9 11  1  0  0  0  0 
  9 13  1  0  0  0  0 
 12 15  1  0  0  0  0 
 12 16  1  0  0  0  0 
 15 17  1  0  0  0  0 
 16 18  1  0  0  0  0 
 17 20  1  0  0  0  0 
 18 20  1  0  0  0  0 
M  END
> <PUBCHEM_COMPOUND_CID>
25619865

$$$$
