61726441
  CDK     0104151102

 30 30  0  0  0  0  0  0  0  0999 V2000
    6.3301   -0.1550    0.0000 O   0  0  0  0  0  0  0  0  0  0  0  0
    5.4641   -2.6550    0.0000 O   0  0  0  0  0  0  0  0  0  0  0  0
    2.8660    2.8450    0.0000 O   0  0  0  0  0  0  0  0  0  0  0  0
    2.0000    1.3450    0.0000 O   0  0  0  0  0  0  0  0  0  0  0  0
    6.3301   -1.1550    0.0000 O   0  0  0  0  0  0  0  0  0  0  0  0
    4.5981   -0.1550    0.0000 N   0  0  0  0  0  0  0  0  0  0  0  0
    3.7320    0.3450    0.0000 C   0  0  0  0  0  0  0  0  0  0  0  0
    3.7320    1.3450    0.0000 C   0  0  0  0  0  0  0  0  0  0  0  0
    4.5981    1.8450    0.0000 C   0  0  0  0  0  0  0  0  0  0  0  0
    4.5981   -1.1550    0.0000 C   0  0  0  0  0  0  0  0  0  0  0  0
    5.4641    0.3450    0.0000 C   0  0  0  0  0  0  0  0  0  0  0  0
    5.4641    1.3450    0.0000 C   0  0  0  0  0  0  0  0  0  0  0  0
    2.8660   -0.1550    0.0000 C   0  0  0  0  0  0  0  0  0  0  0  0
    4.5981    2.8450    0.0000 C   0  0  0  0  0  0  0  0  0  0  0  0
    2.8660    1.8450    0.0000 C   0  0  0  0  0  0  0  0  0  0  0  0
    5.4641   -1.6550    0.0000 C   0  0  0  0  0  0  0  0  0  0  0  0
    6.3301   -3.1550    0.0000 C   0  0  0  0  0  0  0  0  0  0  0  0
    3.9875   -1.0473    0.0000 H   0  0  0  0  0  0  0  0  0  0  0  0
    4.3860   -1.7376    0.0000 H   0  0  0  0  0  0  0  0  0  0  0  0
    6.0010    1.6550    0.0000 H   0  0  0  0  0  0  0  0  0  0  0  0
    2.5560    0.3819    0.0000 H   0  0  0  0  0  0  0  0  0  0  0  0
    2.3291   -0.4650    0.0000 H   0  0  0  0  0  0  0  0  0  0  0  0
    3.1760   -0.6919    0.0000 H   0  0  0  0  0  0  0  0  0  0  0  0
    5.2181    2.8450    0.0000 H   0  0  0  0  0  0  0  0  0  0  0  0
    4.5981    3.4650    0.0000 H   0  0  0  0  0  0  0  0  0  0  0  0
    3.9781    2.8450    0.0000 H   0  0  0  0  0  0  0  0  0  0  0  0
    2.3291    3.1550    0.0000 H   0  0  0  0  0  0  0  0  0  0  0  0
    6.0201   -3.6919    0.0000 H   0  0  0  0  0  0  0  0  0  0  0  0
    6.8671   -3.4650    0.0000 H   0  0  0  0  0  0  0  0  0  0  0  0
    6.6401   -2.6181    0.0000 H   0  0  0  0  0  0  0  0  0  0  0  0
  1 11  2  0  0  0  0 
  2 16  1  0  0  0  0 
  2 17  1  0  0  0  0 
  3 15  1  0  0  0  0 
  3 27  1  0  0  0  0 
  4 15  2  0  0  0  0 
  5 16  2  0  0  0  0 
  6  7  1  0  0  0  0 
  6 10  1  0  0  0  0 
  6 11  1  0  0  0  0 
  7  8  2  0  0  0  0 
  7 13  1  0  0  0  0 
  8  9  1  0  0  0  0 
  8 15  1  0  0  0  0 
  9 12  2  0  0  0  0 
  9 14  1  0  0  0  0 
 10 16  1  0  0  0  0 
 10 18  1  0  0  0  0 
 10 19  1  0  0  0  0 
 11 12  1  0  0  0  0 
 12 20  1  0  0  0  0 
 13 21  1  0  0  0  0 
 13 22  1  0  0  0  0 
 13 23  1  0  0  0  0 
 14 24  1  0  0  0  0 
 14 25  1  0  0  0  0 
 14 26  1  0  0  0  0 
 17 28  1  0  0  0  0 
 17 29  1  0  0  0  0 
 17 30  1  0  0  0  0 
M  END
> <cdk:Title>
61726441

> <cdk:Remark>
null

> <PUBCHEM_COMPOUND_CID>
61726441

> <PUBCHEM_COMPOUND_CANONICALIZED>
1

> <PUBCHEM_CACTVS_COMPLEXITY>
447

> <PUBCHEM_CACTVS_HBOND_ACCEPTOR>
5

> <PUBCHEM_CACTVS_HBOND_DONOR>
1

> <PUBCHEM_CACTVS_ROTATABLE_BOND>
4

> <PUBCHEM_CACTVS_SUBSKEYS>
AAADccByOAAAAAAAAAAAAAAAAAAAAAAAAAAgAAAAAAAAAAAAAAAAHgAACAAADAjBgAYCCAMABgCIAiXSWACAAAAgAAAACAGIAEgKBBAAASABUAAERgCYkUIAAAAAAAAAAAAAAAAAAAAAAAAAAAAAAAAAAA==

> <PUBCHEM_IUPAC_OPENEYE_NAME>
1-(2-methoxy-2-oxo-ethyl)-2,4-dimethyl-6-oxo-pyridine-3-carboxylic acid

> <PUBCHEM_IUPAC_CAS_NAME>
1-(2-methoxy-2-oxoethyl)-2,4-dimethyl-6-oxo-3-pyridinecarboxylic acid

> <PUBCHEM_IUPAC_NAME>
1-(2-methoxy-2-oxoethyl)-2,4-dimethyl-6-oxopyridine-3-carboxylic acid

> <PUBCHEM_IUPAC_SYSTEMATIC_NAME>
1-(2-methoxy-2-oxidanylidene-ethyl)-2,4-dimethyl-6-oxidanylidene-pyridine-3-carboxylic acid

> <PUBCHEM_IUPAC_TRADITIONAL_NAME>
6-keto-1-(2-keto-2-methoxy-ethyl)-2,4-dimethyl-nicotinic acid

> <PUBCHEM_IUPAC_INCHI>
InChI=1S/C11H13NO5/c1-6-4-8(13)12(5-9(14)17-3)7(2)10(6)11(15)16/h4H,5H2,1-3H3,(H,15,16)

> <PUBCHEM_IUPAC_INCHIKEY>
GFCLUNLHWHTRRK-UHFFFAOYSA-N

> <PUBCHEM_XLOGP3_AA>
-0.2

> <PUBCHEM_EXACT_MASS>
239.079373

> <PUBCHEM_MOLECULAR_FORMULA>
C11H13NO5

> <PUBCHEM_MOLECULAR_WEIGHT>
239.22462

> <PUBCHEM_OPENEYE_CAN_SMILES>
CC1=CC(=O)N(C(=C1C(=O)O)C)CC(=O)OC

> <PUBCHEM_OPENEYE_ISO_SMILES>
CC1=CC(=O)N(C(=C1C(=O)O)C)CC(=O)OC

> <PUBCHEM_CACTVS_TPSA>
83.9

> <PUBCHEM_MONOISOTOPIC_WEIGHT>
239.079373

> <PUBCHEM_TOTAL_CHARGE>
0

> <PUBCHEM_HEAVY_ATOM_COUNT>
17

> <PUBCHEM_ATOM_DEF_STEREO_COUNT>
0

> <PUBCHEM_ATOM_UDEF_STEREO_COUNT>
0

> <PUBCHEM_BOND_DEF_STEREO_COUNT>
0

> <PUBCHEM_BOND_UDEF_STEREO_COUNT>
0

> <PUBCHEM_ISOTOPIC_ATOM_COUNT>
0

> <PUBCHEM_COMPONENT_COUNT>
1

> <PUBCHEM_CACTVS_TAUTO_COUNT>
5

> <PUBCHEM_COORDINATE_TYPE>
1

> <PUBCHEM_BONDANNOTATIONS>
11  12  8

$$$$
