10130194
  CDK     1110140952

 30 31  0  0  0  0  0  0  0  0999 V2000
    2.8660    1.0000    0.0000 N   0  0  0  0  0  0  0  0  0  0  0  0
    2.8660    3.0000    0.0000 C   0  0  0  0  0  0  0  0  0  0  0  0
    3.7320    2.5000    0.0000 C   0  0  0  0  0  0  0  0  0  0  0  0
    2.0000    2.5000    0.0000 C   0  0  0  0  0  0  0  0  0  0  0  0
    3.7320    1.5000    0.0000 C   0  0  0  0  0  0  0  0  0  0  0  0
    2.0000    1.5000    0.0000 C   0  0  0  0  0  0  0  0  0  0  0  0
    2.8660    0.0000    0.0000 C   0  0  0  0  0  0  0  0  0  0  0  0
    2.0000   -0.5000    0.0000 C   0  0  0  0  0  0  0  0  0  0  0  0
    3.7320   -0.5000    0.0000 C   0  0  0  0  0  0  0  0  0  0  0  0
    2.0000   -1.5000    0.0000 C   0  0  0  0  0  0  0  0  0  0  0  0
    3.7320   -1.5000    0.0000 C   0  0  0  0  0  0  0  0  0  0  0  0
    2.8660   -2.0000    0.0000 C   0  0  0  0  0  0  0  0  0  0  0  0
    2.8660   -3.0000    0.0000 C   0  0  0  0  0  0  0  0  0  0  0  0
    3.2646    3.4750    0.0000 H   0  0  0  0  0  0  0  0  0  0  0  0
    2.4675    3.4750    0.0000 H   0  0  0  0  0  0  0  0  0  0  0  0
    4.3426    2.3923    0.0000 H   0  0  0  0  0  0  0  0  0  0  0  0
    3.9441    3.0826    0.0000 H   0  0  0  0  0  0  0  0  0  0  0  0
    1.7880    3.0826    0.0000 H   0  0  0  0  0  0  0  0  0  0  0  0
    1.3894    2.3923    0.0000 H   0  0  0  0  0  0  0  0  0  0  0  0
    3.9441    0.9174    0.0000 H   0  0  0  0  0  0  0  0  0  0  0  0
    4.3426    1.6077    0.0000 H   0  0  0  0  0  0  0  0  0  0  0  0
    1.3894    1.6077    0.0000 H   0  0  0  0  0  0  0  0  0  0  0  0
    1.7880    0.9174    0.0000 H   0  0  0  0  0  0  0  0  0  0  0  0
    1.4631   -0.1900    0.0000 H   0  0  0  0  0  0  0  0  0  0  0  0
    4.2690   -0.1900    0.0000 H   0  0  0  0  0  0  0  0  0  0  0  0
    1.4631   -1.8100    0.0000 H   0  0  0  0  0  0  0  0  0  0  0  0
    4.2690   -1.8100    0.0000 H   0  0  0  0  0  0  0  0  0  0  0  0
    2.2460   -3.0000    0.0000 H   0  0  0  0  0  0  0  0  0  0  0  0
    2.8660   -3.6200    0.0000 H   0  0  0  0  0  0  0  0  0  0  0  0
    3.4860   -3.0000    0.0000 H   0  0  0  0  0  0  0  0  0  0  0  0
  1  5  1  0  0  0  0 
  1  6  1  0  0  0  0 
  1  7  1  0  0  0  0 
  2  3  1  0  0  0  0 
  2  4  1  0  0  0  0 
  2 14  1  0  0  0  0 
  2 15  1  0  0  0  0 
  3  5  1  0  0  0  0 
  3 16  1  0  0  0  0 
  3 17  1  0  0  0  0 
  4  6  1  0  0  0  0 
  4 18  1  0  0  0  0 
  4 19  1  0  0  0  0 
  5 20  1  0  0  0  0 
  5 21  1  0  0  0  0 
  6 22  1  0  0  0  0 
  6 23  1  0  0  0  0 
  7  8  2  0  0  0  0 
  7  9  1  0  0  0  0 
  8 10  1  0  0  0  0 
  8 24  1  0  0  0  0 
  9 11  2  0  0  0  0 
  9 25  1  0  0  0  0 
 10 12  2  0  0  0  0 
 10 26  1  0  0  0  0 
 11 12  1  0  0  0  0 
 11 27  1  0  0  0  0 
 12 13  1  0  0  0  0 
 13 28  1  0  0  0  0 
 13 29  1  0  0  0  0 
 13 30  1  0  0  0  0 
M  END
> <cdk:Title>
10130194

> <cdk:Remark>
null

> <PUBCHEM_COMPOUND_CID>
10130194

> <PUBCHEM_COMPOUND_CANONICALIZED>
1

> <PUBCHEM_CACTVS_COMPLEXITY>
141

> <PUBCHEM_CACTVS_HBOND_ACCEPTOR>
1

> <PUBCHEM_CACTVS_HBOND_DONOR>
0

> <PUBCHEM_CACTVS_ROTATABLE_BOND>
1

> <PUBCHEM_CACTVS_SUBSKEYS>
AAADceByAAAAAAAAAAAAAAAAAAAAAAAAAAA8QAAAAAAAAAABAAAAHAAAAAAADAjBGAQywIMAAACAAiRCQACCAAAhAgAIiAAIZIgIICLAkZGEIAhggADIyAcQgAAOCAAAAAAAAAAQAAAAAAAAAAAAAAAAAA==

> <PUBCHEM_IUPAC_OPENEYE_NAME>
1-(p-tolyl)piperidine

> <PUBCHEM_IUPAC_CAS_NAME>
1-(4-methylphenyl)piperidine

> <PUBCHEM_IUPAC_NAME>
1-(4-methylphenyl)piperidine

> <PUBCHEM_IUPAC_SYSTEMATIC_NAME>
1-(4-methylphenyl)piperidine

> <PUBCHEM_IUPAC_TRADITIONAL_NAME>
1-(p-tolyl)piperidine

> <PUBCHEM_IUPAC_INCHI>
InChI=1S/C12H17N/c1-11-5-7-12(8-6-11)13-9-3-2-4-10-13/h5-8H,2-4,9-10H2,1H3

> <PUBCHEM_IUPAC_INCHIKEY>
SEKVDGJLBQJSTO-UHFFFAOYSA-N

> <PUBCHEM_XLOGP3>
3.3

> <PUBCHEM_EXACT_MASS>
175.1361

> <PUBCHEM_MOLECULAR_FORMULA>
C12H17N

> <PUBCHEM_MOLECULAR_WEIGHT>
175.27008

> <PUBCHEM_OPENEYE_CAN_SMILES>
CC1=CC=C(C=C1)N2CCCCC2

> <PUBCHEM_OPENEYE_ISO_SMILES>
CC1=CC=C(C=C1)N2CCCCC2

> <PUBCHEM_CACTVS_TPSA>
3.2

> <PUBCHEM_MONOISOTOPIC_WEIGHT>
175.1361

> <PUBCHEM_TOTAL_CHARGE>
0

> <PUBCHEM_HEAVY_ATOM_COUNT>
13

> <PUBCHEM_ATOM_DEF_STEREO_COUNT>
0

> <PUBCHEM_ATOM_UDEF_STEREO_COUNT>
0

> <PUBCHEM_BOND_DEF_STEREO_COUNT>
0

> <PUBCHEM_BOND_UDEF_STEREO_COUNT>
0

> <PUBCHEM_ISOTOPIC_ATOM_COUNT>
0

> <PUBCHEM_COMPONENT_COUNT>
1

> <PUBCHEM_CACTVS_TAUTO_COUNT>
1

> <PUBCHEM_COORDINATE_TYPE>
1

> <PUBCHEM_BONDANNOTATIONS>
10  12  8

$$$$
10130194
  CDK     1110140953

 30 31  0  0  0  0  0  0  0  0999 V2000
    2.8660    1.0000    0.0000 N   0  0  0  0  0  0  0  0  0  0  0  0
    2.8660    3.0000    0.0000 C   0  0  0  0  0  0  0  0  0  0  0  0
    3.7320    2.5000    0.0000 C   0  0  0  0  0  0  0  0  0  0  0  0
    2.0000    2.5000    0.0000 C   0  0  0  0  0  0  0  0  0  0  0  0
    3.7320    1.5000    0.0000 C   0  0  0  0  0  0  0  0  0  0  0  0
    2.0000    1.5000    0.0000 C   0  0  0  0  0  0  0  0  0  0  0  0
    2.8660    0.0000    0.0000 C   0  0  0  0  0  0  0  0  0  0  0  0
    2.0000   -0.5000    0.0000 C   0  0  0  0  0  0  0  0  0  0  0  0
    3.7320   -0.5000    0.0000 C   0  0  0  0  0  0  0  0  0  0  0  0
    2.0000   -1.5000    0.0000 C   0  0  0  0  0  0  0  0  0  0  0  0
    3.7320   -1.5000    0.0000 C   0  0  0  0  0  0  0  0  0  0  0  0
    2.8660   -2.0000    0.0000 C   0  0  0  0  0  0  0  0  0  0  0  0
    2.8660   -3.0000    0.0000 C   0  0  0  0  0  0  0  0  0  0  0  0
    3.2646    3.4750    0.0000 H   0  0  0  0  0  0  0  0  0  0  0  0
    2.4675    3.4750    0.0000 H   0  0  0  0  0  0  0  0  0  0  0  0
    4.3426    2.3923    0.0000 H   0  0  0  0  0  0  0  0  0  0  0  0
    3.9441    3.0826    0.0000 H   0  0  0  0  0  0  0  0  0  0  0  0
    1.7880    3.0826    0.0000 H   0  0  0  0  0  0  0  0  0  0  0  0
    1.3894    2.3923    0.0000 H   0  0  0  0  0  0  0  0  0  0  0  0
    3.9441    0.9174    0.0000 H   0  0  0  0  0  0  0  0  0  0  0  0
    4.3426    1.6077    0.0000 H   0  0  0  0  0  0  0  0  0  0  0  0
    1.3894    1.6077    0.0000 H   0  0  0  0  0  0  0  0  0  0  0  0
    1.7880    0.9174    0.0000 H   0  0  0  0  0  0  0  0  0  0  0  0
    1.4631   -0.1900    0.0000 H   0  0  0  0  0  0  0  0  0  0  0  0
    4.2690   -0.1900    0.0000 H   0  0  0  0  0  0  0  0  0  0  0  0
    1.4631   -1.8100    0.0000 H   0  0  0  0  0  0  0  0  0  0  0  0
    4.2690   -1.8100    0.0000 H   0  0  0  0  0  0  0  0  0  0  0  0
    2.2460   -3.0000    0.0000 H   0  0  0  0  0  0  0  0  0  0  0  0
    2.8660   -3.6200    0.0000 H   0  0  0  0  0  0  0  0  0  0  0  0
    3.4860   -3.0000    0.0000 H   0  0  0  0  0  0  0  0  0  0  0  0
  1  5  1  0  0  0  0 
  1  6  1  0  0  0  0 
  1  7  1  0  0  0  0 
  2  3  1  0  0  0  0 
  2  4  1  0  0  0  0 
  2 14  1  0  0  0  0 
  2 15  1  0  0  0  0 
  3  5  1  0  0  0  0 
  3 16  1  0  0  0  0 
  3 17  1  0  0  0  0 
  4  6  1  0  0  0  0 
  4 18  1  0  0  0  0 
  4 19  1  0  0  0  0 
  5 20  1  0  0  0  0 
  5 21  1  0  0  0  0 
  6 22  1  0  0  0  0 
  6 23  1  0  0  0  0 
  7  8  2  0  0  0  0 
  7  9  1  0  0  0  0 
  8 10  1  0  0  0  0 
  8 24  1  0  0  0  0 
  9 11  2  0  0  0  0 
  9 25  1  0  0  0  0 
 10 12  2  0  0  0  0 
 10 26  1  0  0  0  0 
 11 12  1  0  0  0  0 
 11 27  1  0  0  0  0 
 12 13  1  0  0  0  0 
 13 28  1  0  0  0  0 
 13 29  1  0  0  0  0 
 13 30  1  0  0  0  0 
M  END
> <cdk:Title>
10130194

> <cdk:Remark>
null

> <PUBCHEM_COMPOUND_CID>
10130194

> <PUBCHEM_COMPOUND_CANONICALIZED>
1

> <PUBCHEM_CACTVS_COMPLEXITY>
141

> <PUBCHEM_CACTVS_HBOND_ACCEPTOR>
1

> <PUBCHEM_CACTVS_HBOND_DONOR>
0

> <PUBCHEM_CACTVS_ROTATABLE_BOND>
1

> <PUBCHEM_CACTVS_SUBSKEYS>
AAADceByAAAAAAAAAAAAAAAAAAAAAAAAAAA8QAAAAAAAAAABAAAAHAAAAAAADAjBGAQywIMAAACAAiRCQACCAAAhAgAIiAAIZIgIICLAkZGEIAhggADIyAcQgAAOCAAAAAAAAAAQAAAAAAAAAAAAAAAAAA==

> <PUBCHEM_IUPAC_OPENEYE_NAME>
1-(p-tolyl)piperidine

> <PUBCHEM_IUPAC_CAS_NAME>
1-(4-methylphenyl)piperidine

> <PUBCHEM_IUPAC_NAME>
1-(4-methylphenyl)piperidine

> <PUBCHEM_IUPAC_SYSTEMATIC_NAME>
1-(4-methylphenyl)piperidine

> <PUBCHEM_IUPAC_TRADITIONAL_NAME>
1-(p-tolyl)piperidine

> <PUBCHEM_IUPAC_INCHI>
InChI=1S/C12H17N/c1-11-5-7-12(8-6-11)13-9-3-2-4-10-13/h5-8H,2-4,9-10H2,1H3

> <PUBCHEM_IUPAC_INCHIKEY>
SEKVDGJLBQJSTO-UHFFFAOYSA-N

> <PUBCHEM_XLOGP3>
3.3

> <PUBCHEM_EXACT_MASS>
175.1361

> <PUBCHEM_MOLECULAR_FORMULA>
C12H17N

> <PUBCHEM_MOLECULAR_WEIGHT>
175.27008

> <PUBCHEM_OPENEYE_CAN_SMILES>
CC1=CC=C(C=C1)N2CCCCC2

> <PUBCHEM_OPENEYE_ISO_SMILES>
CC1=CC=C(C=C1)N2CCCCC2

> <PUBCHEM_CACTVS_TPSA>
3.2

> <PUBCHEM_MONOISOTOPIC_WEIGHT>
175.1361

> <PUBCHEM_TOTAL_CHARGE>
0

> <PUBCHEM_HEAVY_ATOM_COUNT>
13

> <PUBCHEM_ATOM_DEF_STEREO_COUNT>
0

> <PUBCHEM_ATOM_UDEF_STEREO_COUNT>
0

> <PUBCHEM_BOND_DEF_STEREO_COUNT>
0

> <PUBCHEM_BOND_UDEF_STEREO_COUNT>
0

> <PUBCHEM_ISOTOPIC_ATOM_COUNT>
0

> <PUBCHEM_COMPONENT_COUNT>
1

> <PUBCHEM_CACTVS_TAUTO_COUNT>
1

> <PUBCHEM_COORDINATE_TYPE>
1

> <PUBCHEM_BONDANNOTATIONS>
10  12  8

$$$$
10130194
  CDK     1110141344

 30 31  0  0  0  0  0  0  0  0999 V2000
    2.8660    1.0000    0.0000 N   0  0  0  0  0  0  0  0  0  0  0  0
    2.8660    3.0000    0.0000 C   0  0  0  0  0  0  0  0  0  0  0  0
    3.7320    2.5000    0.0000 C   0  0  0  0  0  0  0  0  0  0  0  0
    2.0000    2.5000    0.0000 C   0  0  0  0  0  0  0  0  0  0  0  0
    3.7320    1.5000    0.0000 C   0  0  0  0  0  0  0  0  0  0  0  0
    2.0000    1.5000    0.0000 C   0  0  0  0  0  0  0  0  0  0  0  0
    2.8660    0.0000    0.0000 C   0  0  0  0  0  0  0  0  0  0  0  0
    2.0000   -0.5000    0.0000 C   0  0  0  0  0  0  0  0  0  0  0  0
    3.7320   -0.5000    0.0000 C   0  0  0  0  0  0  0  0  0  0  0  0
    2.0000   -1.5000    0.0000 C   0  0  0  0  0  0  0  0  0  0  0  0
    3.7320   -1.5000    0.0000 C   0  0  0  0  0  0  0  0  0  0  0  0
    2.8660   -2.0000    0.0000 C   0  0  0  0  0  0  0  0  0  0  0  0
    2.8660   -3.0000    0.0000 C   0  0  0  0  0  0  0  0  0  0  0  0
    3.2646    3.4750    0.0000 H   0  0  0  0  0  0  0  0  0  0  0  0
    2.4675    3.4750    0.0000 H   0  0  0  0  0  0  0  0  0  0  0  0
    4.3426    2.3923    0.0000 H   0  0  0  0  0  0  0  0  0  0  0  0
    3.9441    3.0826    0.0000 H   0  0  0  0  0  0  0  0  0  0  0  0
    1.7880    3.0826    0.0000 H   0  0  0  0  0  0  0  0  0  0  0  0
    1.3894    2.3923    0.0000 H   0  0  0  0  0  0  0  0  0  0  0  0
    3.9441    0.9174    0.0000 H   0  0  0  0  0  0  0  0  0  0  0  0
    4.3426    1.6077    0.0000 H   0  0  0  0  0  0  0  0  0  0  0  0
    1.3894    1.6077    0.0000 H   0  0  0  0  0  0  0  0  0  0  0  0
    1.7880    0.9174    0.0000 H   0  0  0  0  0  0  0  0  0  0  0  0
    1.4631   -0.1900    0.0000 H   0  0  0  0  0  0  0  0  0  0  0  0
    4.2690   -0.1900    0.0000 H   0  0  0  0  0  0  0  0  0  0  0  0
    1.4631   -1.8100    0.0000 H   0  0  0  0  0  0  0  0  0  0  0  0
    4.2690   -1.8100    0.0000 H   0  0  0  0  0  0  0  0  0  0  0  0
    2.2460   -3.0000    0.0000 H   0  0  0  0  0  0  0  0  0  0  0  0
    2.8660   -3.6200    0.0000 H   0  0  0  0  0  0  0  0  0  0  0  0
    3.4860   -3.0000    0.0000 H   0  0  0  0  0  0  0  0  0  0  0  0
  1  5  1  0  0  0  0 
  1  6  1  0  0  0  0 
  1  7  1  0  0  0  0 
  2  3  1  0  0  0  0 
  2  4  1  0  0  0  0 
  2 14  1  0  0  0  0 
  2 15  1  0  0  0  0 
  3  5  1  0  0  0  0 
  3 16  1  0  0  0  0 
  3 17  1  0  0  0  0 
  4  6  1  0  0  0  0 
  4 18  1  0  0  0  0 
  4 19  1  0  0  0  0 
  5 20  1  0  0  0  0 
  5 21  1  0  0  0  0 
  6 22  1  0  0  0  0 
  6 23  1  0  0  0  0 
  7  8  2  0  0  0  0 
  7  9  1  0  0  0  0 
  8 10  1  0  0  0  0 
  8 24  1  0  0  0  0 
  9 11  2  0  0  0  0 
  9 25  1  0  0  0  0 
 10 12  2  0  0  0  0 
 10 26  1  0  0  0  0 
 11 12  1  0  0  0  0 
 11 27  1  0  0  0  0 
 12 13  1  0  0  0  0 
 13 28  1  0  0  0  0 
 13 29  1  0  0  0  0 
 13 30  1  0  0  0  0 
M  END
> <cdk:Title>
10130194

> <cdk:Remark>
null

> <PUBCHEM_COMPOUND_CID>
10130194

> <PUBCHEM_COMPOUND_CANONICALIZED>
1

> <PUBCHEM_CACTVS_COMPLEXITY>
141

> <PUBCHEM_CACTVS_HBOND_ACCEPTOR>
1

> <PUBCHEM_CACTVS_HBOND_DONOR>
0

> <PUBCHEM_CACTVS_ROTATABLE_BOND>
1

> <PUBCHEM_CACTVS_SUBSKEYS>
AAADceByAAAAAAAAAAAAAAAAAAAAAAAAAAA8QAAAAAAAAAABAAAAHAAAAAAADAjBGAQywIMAAACAAiRCQACCAAAhAgAIiAAIZIgIICLAkZGEIAhggADIyAcQgAAOCAAAAAAAAAAQAAAAAAAAAAAAAAAAAA==

> <PUBCHEM_IUPAC_OPENEYE_NAME>
1-(p-tolyl)piperidine

> <PUBCHEM_IUPAC_CAS_NAME>
1-(4-methylphenyl)piperidine

> <PUBCHEM_IUPAC_NAME>
1-(4-methylphenyl)piperidine

> <PUBCHEM_IUPAC_SYSTEMATIC_NAME>
1-(4-methylphenyl)piperidine

> <PUBCHEM_IUPAC_TRADITIONAL_NAME>
1-(p-tolyl)piperidine

> <PUBCHEM_IUPAC_INCHI>
InChI=1S/C12H17N/c1-11-5-7-12(8-6-11)13-9-3-2-4-10-13/h5-8H,2-4,9-10H2,1H3

> <PUBCHEM_IUPAC_INCHIKEY>
SEKVDGJLBQJSTO-UHFFFAOYSA-N

> <PUBCHEM_XLOGP3>
3.3

> <PUBCHEM_EXACT_MASS>
175.1361

> <PUBCHEM_MOLECULAR_FORMULA>
C12H17N

> <PUBCHEM_MOLECULAR_WEIGHT>
175.27008

> <PUBCHEM_OPENEYE_CAN_SMILES>
CC1=CC=C(C=C1)N2CCCCC2

> <PUBCHEM_OPENEYE_ISO_SMILES>
CC1=CC=C(C=C1)N2CCCCC2

> <PUBCHEM_CACTVS_TPSA>
3.2

> <PUBCHEM_MONOISOTOPIC_WEIGHT>
175.1361

> <PUBCHEM_TOTAL_CHARGE>
0

> <PUBCHEM_HEAVY_ATOM_COUNT>
13

> <PUBCHEM_ATOM_DEF_STEREO_COUNT>
0

> <PUBCHEM_ATOM_UDEF_STEREO_COUNT>
0

> <PUBCHEM_BOND_DEF_STEREO_COUNT>
0

> <PUBCHEM_BOND_UDEF_STEREO_COUNT>
0

> <PUBCHEM_ISOTOPIC_ATOM_COUNT>
0

> <PUBCHEM_COMPONENT_COUNT>
1

> <PUBCHEM_CACTVS_TAUTO_COUNT>
1

> <PUBCHEM_COORDINATE_TYPE>
1

> <PUBCHEM_BONDANNOTATIONS>
10  12  8

$$$$
10130194
  CDK     1110141346

 30 31  0  0  0  0  0  0  0  0999 V2000
    2.8660    1.0000    0.0000 N   0  0  0  0  0  0  0  0  0  0  0  0
    2.8660    3.0000    0.0000 C   0  0  0  0  0  0  0  0  0  0  0  0
    3.7320    2.5000    0.0000 C   0  0  0  0  0  0  0  0  0  0  0  0
    2.0000    2.5000    0.0000 C   0  0  0  0  0  0  0  0  0  0  0  0
    3.7320    1.5000    0.0000 C   0  0  0  0  0  0  0  0  0  0  0  0
    2.0000    1.5000    0.0000 C   0  0  0  0  0  0  0  0  0  0  0  0
    2.8660    0.0000    0.0000 C   0  0  0  0  0  0  0  0  0  0  0  0
    2.0000   -0.5000    0.0000 C   0  0  0  0  0  0  0  0  0  0  0  0
    3.7320   -0.5000    0.0000 C   0  0  0  0  0  0  0  0  0  0  0  0
    2.0000   -1.5000    0.0000 C   0  0  0  0  0  0  0  0  0  0  0  0
    3.7320   -1.5000    0.0000 C   0  0  0  0  0  0  0  0  0  0  0  0
    2.8660   -2.0000    0.0000 C   0  0  0  0  0  0  0  0  0  0  0  0
    2.8660   -3.0000    0.0000 C   0  0  0  0  0  0  0  0  0  0  0  0
    3.2646    3.4750    0.0000 H   0  0  0  0  0  0  0  0  0  0  0  0
    2.4675    3.4750    0.0000 H   0  0  0  0  0  0  0  0  0  0  0  0
    4.3426    2.3923    0.0000 H   0  0  0  0  0  0  0  0  0  0  0  0
    3.9441    3.0826    0.0000 H   0  0  0  0  0  0  0  0  0  0  0  0
    1.7880    3.0826    0.0000 H   0  0  0  0  0  0  0  0  0  0  0  0
    1.3894    2.3923    0.0000 H   0  0  0  0  0  0  0  0  0  0  0  0
    3.9441    0.9174    0.0000 H   0  0  0  0  0  0  0  0  0  0  0  0
    4.3426    1.6077    0.0000 H   0  0  0  0  0  0  0  0  0  0  0  0
    1.3894    1.6077    0.0000 H   0  0  0  0  0  0  0  0  0  0  0  0
    1.7880    0.9174    0.0000 H   0  0  0  0  0  0  0  0  0  0  0  0
    1.4631   -0.1900    0.0000 H   0  0  0  0  0  0  0  0  0  0  0  0
    4.2690   -0.1900    0.0000 H   0  0  0  0  0  0  0  0  0  0  0  0
    1.4631   -1.8100    0.0000 H   0  0  0  0  0  0  0  0  0  0  0  0
    4.2690   -1.8100    0.0000 H   0  0  0  0  0  0  0  0  0  0  0  0
    2.2460   -3.0000    0.0000 H   0  0  0  0  0  0  0  0  0  0  0  0
    2.8660   -3.6200    0.0000 H   0  0  0  0  0  0  0  0  0  0  0  0
    3.4860   -3.0000    0.0000 H   0  0  0  0  0  0  0  0  0  0  0  0
  1  5  1  0  0  0  0 
  1  6  1  0  0  0  0 
  1  7  1  0  0  0  0 
  2  3  1  0  0  0  0 
  2  4  1  0  0  0  0 
  2 14  1  0  0  0  0 
  2 15  1  0  0  0  0 
  3  5  1  0  0  0  0 
  3 16  1  0  0  0  0 
  3 17  1  0  0  0  0 
  4  6  1  0  0  0  0 
  4 18  1  0  0  0  0 
  4 19  1  0  0  0  0 
  5 20  1  0  0  0  0 
  5 21  1  0  0  0  0 
  6 22  1  0  0  0  0 
  6 23  1  0  0  0  0 
  7  8  2  0  0  0  0 
  7  9  1  0  0  0  0 
  8 10  1  0  0  0  0 
  8 24  1  0  0  0  0 
  9 11  2  0  0  0  0 
  9 25  1  0  0  0  0 
 10 12  2  0  0  0  0 
 10 26  1  0  0  0  0 
 11 12  1  0  0  0  0 
 11 27  1  0  0  0  0 
 12 13  1  0  0  0  0 
 13 28  1  0  0  0  0 
 13 29  1  0  0  0  0 
 13 30  1  0  0  0  0 
M  END
> <cdk:Title>
10130194

> <cdk:Remark>
null

> <PUBCHEM_COMPOUND_CID>
10130194

> <PUBCHEM_COMPOUND_CANONICALIZED>
1

> <PUBCHEM_CACTVS_COMPLEXITY>
141

> <PUBCHEM_CACTVS_HBOND_ACCEPTOR>
1

> <PUBCHEM_CACTVS_HBOND_DONOR>
0

> <PUBCHEM_CACTVS_ROTATABLE_BOND>
1

> <PUBCHEM_CACTVS_SUBSKEYS>
AAADceByAAAAAAAAAAAAAAAAAAAAAAAAAAA8QAAAAAAAAAABAAAAHAAAAAAADAjBGAQywIMAAACAAiRCQACCAAAhAgAIiAAIZIgIICLAkZGEIAhggADIyAcQgAAOCAAAAAAAAAAQAAAAAAAAAAAAAAAAAA==

> <PUBCHEM_IUPAC_OPENEYE_NAME>
1-(p-tolyl)piperidine

> <PUBCHEM_IUPAC_CAS_NAME>
1-(4-methylphenyl)piperidine

> <PUBCHEM_IUPAC_NAME>
1-(4-methylphenyl)piperidine

> <PUBCHEM_IUPAC_SYSTEMATIC_NAME>
1-(4-methylphenyl)piperidine

> <PUBCHEM_IUPAC_TRADITIONAL_NAME>
1-(p-tolyl)piperidine

> <PUBCHEM_IUPAC_INCHI>
InChI=1S/C12H17N/c1-11-5-7-12(8-6-11)13-9-3-2-4-10-13/h5-8H,2-4,9-10H2,1H3

> <PUBCHEM_IUPAC_INCHIKEY>
SEKVDGJLBQJSTO-UHFFFAOYSA-N

> <PUBCHEM_XLOGP3>
3.3

> <PUBCHEM_EXACT_MASS>
175.1361

> <PUBCHEM_MOLECULAR_FORMULA>
C12H17N

> <PUBCHEM_MOLECULAR_WEIGHT>
175.27008

> <PUBCHEM_OPENEYE_CAN_SMILES>
CC1=CC=C(C=C1)N2CCCCC2

> <PUBCHEM_OPENEYE_ISO_SMILES>
CC1=CC=C(C=C1)N2CCCCC2

> <PUBCHEM_CACTVS_TPSA>
3.2

> <PUBCHEM_MONOISOTOPIC_WEIGHT>
175.1361

> <PUBCHEM_TOTAL_CHARGE>
0

> <PUBCHEM_HEAVY_ATOM_COUNT>
13

> <PUBCHEM_ATOM_DEF_STEREO_COUNT>
0

> <PUBCHEM_ATOM_UDEF_STEREO_COUNT>
0

> <PUBCHEM_BOND_DEF_STEREO_COUNT>
0

> <PUBCHEM_BOND_UDEF_STEREO_COUNT>
0

> <PUBCHEM_ISOTOPIC_ATOM_COUNT>
0

> <PUBCHEM_COMPONENT_COUNT>
1

> <PUBCHEM_CACTVS_TAUTO_COUNT>
1

> <PUBCHEM_COORDINATE_TYPE>
1

> <PUBCHEM_BONDANNOTATIONS>
10  12  8

$$$$
10130194
  CDK     1110141352

 30 31  0  0  0  0  0  0  0  0999 V2000
    2.8660    1.0000    0.0000 N   0  0  0  0  0  0  0  0  0  0  0  0
    2.8660    3.0000    0.0000 C   0  0  0  0  0  0  0  0  0  0  0  0
    3.7320    2.5000    0.0000 C   0  0  0  0  0  0  0  0  0  0  0  0
    2.0000    2.5000    0.0000 C   0  0  0  0  0  0  0  0  0  0  0  0
    3.7320    1.5000    0.0000 C   0  0  0  0  0  0  0  0  0  0  0  0
    2.0000    1.5000    0.0000 C   0  0  0  0  0  0  0  0  0  0  0  0
    2.8660    0.0000    0.0000 C   0  0  0  0  0  0  0  0  0  0  0  0
    2.0000   -0.5000    0.0000 C   0  0  0  0  0  0  0  0  0  0  0  0
    3.7320   -0.5000    0.0000 C   0  0  0  0  0  0  0  0  0  0  0  0
    2.0000   -1.5000    0.0000 C   0  0  0  0  0  0  0  0  0  0  0  0
    3.7320   -1.5000    0.0000 C   0  0  0  0  0  0  0  0  0  0  0  0
    2.8660   -2.0000    0.0000 C   0  0  0  0  0  0  0  0  0  0  0  0
    2.8660   -3.0000    0.0000 C   0  0  0  0  0  0  0  0  0  0  0  0
    3.2646    3.4750    0.0000 H   0  0  0  0  0  0  0  0  0  0  0  0
    2.4675    3.4750    0.0000 H   0  0  0  0  0  0  0  0  0  0  0  0
    4.3426    2.3923    0.0000 H   0  0  0  0  0  0  0  0  0  0  0  0
    3.9441    3.0826    0.0000 H   0  0  0  0  0  0  0  0  0  0  0  0
    1.7880    3.0826    0.0000 H   0  0  0  0  0  0  0  0  0  0  0  0
    1.3894    2.3923    0.0000 H   0  0  0  0  0  0  0  0  0  0  0  0
    3.9441    0.9174    0.0000 H   0  0  0  0  0  0  0  0  0  0  0  0
    4.3426    1.6077    0.0000 H   0  0  0  0  0  0  0  0  0  0  0  0
    1.3894    1.6077    0.0000 H   0  0  0  0  0  0  0  0  0  0  0  0
    1.7880    0.9174    0.0000 H   0  0  0  0  0  0  0  0  0  0  0  0
    1.4631   -0.1900    0.0000 H   0  0  0  0  0  0  0  0  0  0  0  0
    4.2690   -0.1900    0.0000 H   0  0  0  0  0  0  0  0  0  0  0  0
    1.4631   -1.8100    0.0000 H   0  0  0  0  0  0  0  0  0  0  0  0
    4.2690   -1.8100    0.0000 H   0  0  0  0  0  0  0  0  0  0  0  0
    2.2460   -3.0000    0.0000 H   0  0  0  0  0  0  0  0  0  0  0  0
    2.8660   -3.6200    0.0000 H   0  0  0  0  0  0  0  0  0  0  0  0
    3.4860   -3.0000    0.0000 H   0  0  0  0  0  0  0  0  0  0  0  0
  1  5  1  0  0  0  0 
  1  6  1  0  0  0  0 
  1  7  1  0  0  0  0 
  2  3  1  0  0  0  0 
  2  4  1  0  0  0  0 
  2 14  1  0  0  0  0 
  2 15  1  0  0  0  0 
  3  5  1  0  0  0  0 
  3 16  1  0  0  0  0 
  3 17  1  0  0  0  0 
  4  6  1  0  0  0  0 
  4 18  1  0  0  0  0 
  4 19  1  0  0  0  0 
  5 20  1  0  0  0  0 
  5 21  1  0  0  0  0 
  6 22  1  0  0  0  0 
  6 23  1  0  0  0  0 
  7  8  2  0  0  0  0 
  7  9  1  0  0  0  0 
  8 10  1  0  0  0  0 
  8 24  1  0  0  0  0 
  9 11  2  0  0  0  0 
  9 25  1  0  0  0  0 
 10 12  2  0  0  0  0 
 10 26  1  0  0  0  0 
 11 12  1  0  0  0  0 
 11 27  1  0  0  0  0 
 12 13  1  0  0  0  0 
 13 28  1  0  0  0  0 
 13 29  1  0  0  0  0 
 13 30  1  0  0  0  0 
M  END
> <cdk:Title>
10130194

> <cdk:Remark>
null

> <PUBCHEM_COMPOUND_CID>
10130194

> <PUBCHEM_COMPOUND_CANONICALIZED>
1

> <PUBCHEM_CACTVS_COMPLEXITY>
141

> <PUBCHEM_CACTVS_HBOND_ACCEPTOR>
1

> <PUBCHEM_CACTVS_HBOND_DONOR>
0

> <PUBCHEM_CACTVS_ROTATABLE_BOND>
1

> <PUBCHEM_CACTVS_SUBSKEYS>
AAADceByAAAAAAAAAAAAAAAAAAAAAAAAAAA8QAAAAAAAAAABAAAAHAAAAAAADAjBGAQywIMAAACAAiRCQACCAAAhAgAIiAAIZIgIICLAkZGEIAhggADIyAcQgAAOCAAAAAAAAAAQAAAAAAAAAAAAAAAAAA==

> <PUBCHEM_IUPAC_OPENEYE_NAME>
1-(p-tolyl)piperidine

> <PUBCHEM_IUPAC_CAS_NAME>
1-(4-methylphenyl)piperidine

> <PUBCHEM_IUPAC_NAME>
1-(4-methylphenyl)piperidine

> <PUBCHEM_IUPAC_SYSTEMATIC_NAME>
1-(4-methylphenyl)piperidine

> <PUBCHEM_IUPAC_TRADITIONAL_NAME>
1-(p-tolyl)piperidine

> <PUBCHEM_IUPAC_INCHI>
InChI=1S/C12H17N/c1-11-5-7-12(8-6-11)13-9-3-2-4-10-13/h5-8H,2-4,9-10H2,1H3

> <PUBCHEM_IUPAC_INCHIKEY>
SEKVDGJLBQJSTO-UHFFFAOYSA-N

> <PUBCHEM_XLOGP3>
3.3

> <PUBCHEM_EXACT_MASS>
175.1361

> <PUBCHEM_MOLECULAR_FORMULA>
C12H17N

> <PUBCHEM_MOLECULAR_WEIGHT>
175.27008

> <PUBCHEM_OPENEYE_CAN_SMILES>
CC1=CC=C(C=C1)N2CCCCC2

> <PUBCHEM_OPENEYE_ISO_SMILES>
CC1=CC=C(C=C1)N2CCCCC2

> <PUBCHEM_CACTVS_TPSA>
3.2

> <PUBCHEM_MONOISOTOPIC_WEIGHT>
175.1361

> <PUBCHEM_TOTAL_CHARGE>
0

> <PUBCHEM_HEAVY_ATOM_COUNT>
13

> <PUBCHEM_ATOM_DEF_STEREO_COUNT>
0

> <PUBCHEM_ATOM_UDEF_STEREO_COUNT>
0

> <PUBCHEM_BOND_DEF_STEREO_COUNT>
0

> <PUBCHEM_BOND_UDEF_STEREO_COUNT>
0

> <PUBCHEM_ISOTOPIC_ATOM_COUNT>
0

> <PUBCHEM_COMPONENT_COUNT>
1

> <PUBCHEM_CACTVS_TAUTO_COUNT>
1

> <PUBCHEM_COORDINATE_TYPE>
1

> <PUBCHEM_BONDANNOTATIONS>
10  12  8

$$$$
10130194
  CDK     1110141358

 30 31  0  0  0  0  0  0  0  0999 V2000
    2.8660    1.0000    0.0000 N   0  0  0  0  0  0  0  0  0  0  0  0
    2.8660    3.0000    0.0000 C   0  0  0  0  0  0  0  0  0  0  0  0
    3.7320    2.5000    0.0000 C   0  0  0  0  0  0  0  0  0  0  0  0
    2.0000    2.5000    0.0000 C   0  0  0  0  0  0  0  0  0  0  0  0
    3.7320    1.5000    0.0000 C   0  0  0  0  0  0  0  0  0  0  0  0
    2.0000    1.5000    0.0000 C   0  0  0  0  0  0  0  0  0  0  0  0
    2.8660    0.0000    0.0000 C   0  0  0  0  0  0  0  0  0  0  0  0
    2.0000   -0.5000    0.0000 C   0  0  0  0  0  0  0  0  0  0  0  0
    3.7320   -0.5000    0.0000 C   0  0  0  0  0  0  0  0  0  0  0  0
    2.0000   -1.5000    0.0000 C   0  0  0  0  0  0  0  0  0  0  0  0
    3.7320   -1.5000    0.0000 C   0  0  0  0  0  0  0  0  0  0  0  0
    2.8660   -2.0000    0.0000 C   0  0  0  0  0  0  0  0  0  0  0  0
    2.8660   -3.0000    0.0000 C   0  0  0  0  0  0  0  0  0  0  0  0
    3.2646    3.4750    0.0000 H   0  0  0  0  0  0  0  0  0  0  0  0
    2.4675    3.4750    0.0000 H   0  0  0  0  0  0  0  0  0  0  0  0
    4.3426    2.3923    0.0000 H   0  0  0  0  0  0  0  0  0  0  0  0
    3.9441    3.0826    0.0000 H   0  0  0  0  0  0  0  0  0  0  0  0
    1.7880    3.0826    0.0000 H   0  0  0  0  0  0  0  0  0  0  0  0
    1.3894    2.3923    0.0000 H   0  0  0  0  0  0  0  0  0  0  0  0
    3.9441    0.9174    0.0000 H   0  0  0  0  0  0  0  0  0  0  0  0
    4.3426    1.6077    0.0000 H   0  0  0  0  0  0  0  0  0  0  0  0
    1.3894    1.6077    0.0000 H   0  0  0  0  0  0  0  0  0  0  0  0
    1.7880    0.9174    0.0000 H   0  0  0  0  0  0  0  0  0  0  0  0
    1.4631   -0.1900    0.0000 H   0  0  0  0  0  0  0  0  0  0  0  0
    4.2690   -0.1900    0.0000 H   0  0  0  0  0  0  0  0  0  0  0  0
    1.4631   -1.8100    0.0000 H   0  0  0  0  0  0  0  0  0  0  0  0
    4.2690   -1.8100    0.0000 H   0  0  0  0  0  0  0  0  0  0  0  0
    2.2460   -3.0000    0.0000 H   0  0  0  0  0  0  0  0  0  0  0  0
    2.8660   -3.6200    0.0000 H   0  0  0  0  0  0  0  0  0  0  0  0
    3.4860   -3.0000    0.0000 H   0  0  0  0  0  0  0  0  0  0  0  0
  1  5  1  0  0  0  0 
  1  6  1  0  0  0  0 
  1  7  1  0  0  0  0 
  2  3  1  0  0  0  0 
  2  4  1  0  0  0  0 
  2 14  1  0  0  0  0 
  2 15  1  0  0  0  0 
  3  5  1  0  0  0  0 
  3 16  1  0  0  0  0 
  3 17  1  0  0  0  0 
  4  6  1  0  0  0  0 
  4 18  1  0  0  0  0 
  4 19  1  0  0  0  0 
  5 20  1  0  0  0  0 
  5 21  1  0  0  0  0 
  6 22  1  0  0  0  0 
  6 23  1  0  0  0  0 
  7  8  2  0  0  0  0 
  7  9  1  0  0  0  0 
  8 10  1  0  0  0  0 
  8 24  1  0  0  0  0 
  9 11  2  0  0  0  0 
  9 25  1  0  0  0  0 
 10 12  2  0  0  0  0 
 10 26  1  0  0  0  0 
 11 12  1  0  0  0  0 
 11 27  1  0  0  0  0 
 12 13  1  0  0  0  0 
 13 28  1  0  0  0  0 
 13 29  1  0  0  0  0 
 13 30  1  0  0  0  0 
M  END
> <cdk:Title>
10130194

> <cdk:Remark>
null

> <PUBCHEM_COMPOUND_CID>
10130194

> <PUBCHEM_COMPOUND_CANONICALIZED>
1

> <PUBCHEM_CACTVS_COMPLEXITY>
141

> <PUBCHEM_CACTVS_HBOND_ACCEPTOR>
1

> <PUBCHEM_CACTVS_HBOND_DONOR>
0

> <PUBCHEM_CACTVS_ROTATABLE_BOND>
1

> <PUBCHEM_CACTVS_SUBSKEYS>
AAADceByAAAAAAAAAAAAAAAAAAAAAAAAAAA8QAAAAAAAAAABAAAAHAAAAAAADAjBGAQywIMAAACAAiRCQACCAAAhAgAIiAAIZIgIICLAkZGEIAhggADIyAcQgAAOCAAAAAAAAAAQAAAAAAAAAAAAAAAAAA==

> <PUBCHEM_IUPAC_OPENEYE_NAME>
1-(p-tolyl)piperidine

> <PUBCHEM_IUPAC_CAS_NAME>
1-(4-methylphenyl)piperidine

> <PUBCHEM_IUPAC_NAME>
1-(4-methylphenyl)piperidine

> <PUBCHEM_IUPAC_SYSTEMATIC_NAME>
1-(4-methylphenyl)piperidine

> <PUBCHEM_IUPAC_TRADITIONAL_NAME>
1-(p-tolyl)piperidine

> <PUBCHEM_IUPAC_INCHI>
InChI=1S/C12H17N/c1-11-5-7-12(8-6-11)13-9-3-2-4-10-13/h5-8H,2-4,9-10H2,1H3

> <PUBCHEM_IUPAC_INCHIKEY>
SEKVDGJLBQJSTO-UHFFFAOYSA-N

> <PUBCHEM_XLOGP3>
3.3

> <PUBCHEM_EXACT_MASS>
175.1361

> <PUBCHEM_MOLECULAR_FORMULA>
C12H17N

> <PUBCHEM_MOLECULAR_WEIGHT>
175.27008

> <PUBCHEM_OPENEYE_CAN_SMILES>
CC1=CC=C(C=C1)N2CCCCC2

> <PUBCHEM_OPENEYE_ISO_SMILES>
CC1=CC=C(C=C1)N2CCCCC2

> <PUBCHEM_CACTVS_TPSA>
3.2

> <PUBCHEM_MONOISOTOPIC_WEIGHT>
175.1361

> <PUBCHEM_TOTAL_CHARGE>
0

> <PUBCHEM_HEAVY_ATOM_COUNT>
13

> <PUBCHEM_ATOM_DEF_STEREO_COUNT>
0

> <PUBCHEM_ATOM_UDEF_STEREO_COUNT>
0

> <PUBCHEM_BOND_DEF_STEREO_COUNT>
0

> <PUBCHEM_BOND_UDEF_STEREO_COUNT>
0

> <PUBCHEM_ISOTOPIC_ATOM_COUNT>
0

> <PUBCHEM_COMPONENT_COUNT>
1

> <PUBCHEM_CACTVS_TAUTO_COUNT>
1

> <PUBCHEM_COORDINATE_TYPE>
1

> <PUBCHEM_BONDANNOTATIONS>
10  12  8

$$$$
23358082
  CDK     1110141358

 40 41  0  0  0  0  0  0  0  0999 V2000
    5.4641   -1.2500    0.0000 N   0  0  3  0  0  0  0  0  0  0  0  0
    2.8660    4.2500    0.0000 N   0  0  0  0  0  0  0  0  0  0  0  0
    4.5981    0.2500    0.0000 C   0  0  3  0  0  0  0  0  0  0  0  0
    4.5981   -0.7500    0.0000 C   0  0  0  0  0  0  0  0  0  0  0  0
    5.4641    0.7500    0.0000 C   0  0  0  0  0  0  0  0  0  0  0  0
    6.3301    0.2500    0.0000 C   0  0  0  0  0  0  0  0  0  0  0  0
    6.3301   -0.7500    0.0000 C   0  0  0  0  0  0  0  0  0  0  0  0
    5.4641   -2.2500    0.0000 C   0  0  0  0  0  0  0  0  0  0  0  0
    3.7320    0.7500    0.0000 C   0  0  0  0  0  0  0  0  0  0  0  0
    6.3301   -2.7500    0.0000 C   0  0  0  0  0  0  0  0  0  0  0  0
    6.3301   -3.7500    0.0000 C   0  0  0  0  0  0  0  0  0  0  0  0
    3.7320    1.7500    0.0000 C   0  0  0  0  0  0  0  0  0  0  0  0
    2.8660    0.2500    0.0000 C   0  0  0  0  0  0  0  0  0  0  0  0
    2.8660    2.2500    0.0000 C   0  0  0  0  0  0  0  0  0  0  0  0
    2.0000    0.7500    0.0000 C   0  0  0  0  0  0  0  0  0  0  0  0
    7.1962   -4.2500    0.0000 C   0  0  0  0  0  0  0  0  0  0  0  0
    2.0000    1.7500    0.0000 C   0  0  0  0  0  0  0  0  0  0  0  0
    2.8660    3.2500    0.0000 C   0  0  0  0  0  0  0  0  0  0  0  0
    4.5981    0.8700    0.0000 H   0  0  0  0  0  0  0  0  0  0  0  0
    3.9875   -0.6423    0.0000 H   0  0  0  0  0  0  0  0  0  0  0  0
    4.3860   -1.3326    0.0000 H   0  0  0  0  0  0  0  0  0  0  0  0
    5.8626    1.2250    0.0000 H   0  0  0  0  0  0  0  0  0  0  0  0
    5.0656    1.2250    0.0000 H   0  0  0  0  0  0  0  0  0  0  0  0
    6.9407    0.1423    0.0000 H   0  0  0  0  0  0  0  0  0  0  0  0
    6.5422    0.8326    0.0000 H   0  0  0  0  0  0  0  0  0  0  0  0
    6.5422   -1.3326    0.0000 H   0  0  0  0  0  0  0  0  0  0  0  0
    6.9407   -0.6423    0.0000 H   0  0  0  0  0  0  0  0  0  0  0  0
    4.8535   -2.1423    0.0000 H   0  0  0  0  0  0  0  0  0  0  0  0
    5.2520   -2.8326    0.0000 H   0  0  0  0  0  0  0  0  0  0  0  0
    6.9407   -2.8577    0.0000 H   0  0  0  0  0  0  0  0  0  0  0  0
    6.5422   -2.1674    0.0000 H   0  0  0  0  0  0  0  0  0  0  0  0
    5.7196   -3.6423    0.0000 H   0  0  0  0  0  0  0  0  0  0  0  0
    6.1181   -4.3326    0.0000 H   0  0  0  0  0  0  0  0  0  0  0  0
    4.2690    2.0600    0.0000 H   0  0  0  0  0  0  0  0  0  0  0  0
    2.8660   -0.3700    0.0000 H   0  0  0  0  0  0  0  0  0  0  0  0
    1.4631    0.4400    0.0000 H   0  0  0  0  0  0  0  0  0  0  0  0
    6.8862   -4.7869    0.0000 H   0  0  0  0  0  0  0  0  0  0  0  0
    7.7331   -4.5600    0.0000 H   0  0  0  0  0  0  0  0  0  0  0  0
    7.5062   -3.7131    0.0000 H   0  0  0  0  0  0  0  0  0  0  0  0
    1.4631    2.0600    0.0000 H   0  0  0  0  0  0  0  0  0  0  0  0
  1  4  1  0  0  0  0 
  1  7  1  0  0  0  0 
  1  8  1  0  0  0  0 
  2 18  3  0  0  0  0 
  3  4  1  0  0  0  0 
  3  5  1  0  0  0  0 
  3  9  1  0  0  0  0 
  3 19  1  0  0  0  0 
  4 20  1  0  0  0  0 
  4 21  1  0  0  0  0 
  5  6  1  0  0  0  0 
  5 22  1  0  0  0  0 
  5 23  1  0  0  0  0 
  6  7  1  0  0  0  0 
  6 24  1  0  0  0  0 
  6 25  1  0  0  0  0 
  7 26  1  0  0  0  0 
  7 27  1  0  0  0  0 
  8 10  1  0  0  0  0 
  8 28  1  0  0  0  0 
  8 29  1  0  0  0  0 
  9 12  1  0  0  0  0 
  9 13  2  0  0  0  0 
 10 11  1  0  0  0  0 
 10 30  1  0  0  0  0 
 10 31  1  0  0  0  0 
 11 16  1  0  0  0  0 
 11 32  1  0  0  0  0 
 11 33  1  0  0  0  0 
 12 14  2  0  0  0  0 
 12 34  1  0  0  0  0 
 13 15  1  0  0  0  0 
 13 35  1  0  0  0  0 
 14 17  1  0  0  0  0 
 14 18  1  0  0  0  0 
 15 17  2  0  0  0  0 
 15 36  1  0  0  0  0 
 16 37  1  0  0  0  0 
 16 38  1  0  0  0  0 
 16 39  1  0  0  0  0 
 17 40  1  0  0  0  0 
M  END
> <cdk:Title>
23358082

> <cdk:Remark>
null

> <PUBCHEM_COMPOUND_CID>
23358082

> <PUBCHEM_COMPOUND_CANONICALIZED>
1

> <PUBCHEM_CACTVS_COMPLEXITY>
291

> <PUBCHEM_CACTVS_HBOND_ACCEPTOR>
2

> <PUBCHEM_CACTVS_HBOND_DONOR>
0

> <PUBCHEM_CACTVS_ROTATABLE_BOND>
4

> <PUBCHEM_CACTVS_SUBSKEYS>
AAADceB7AAAAAAAAAAAAAAAAAAAAAAAAAAA8QAAAAAAAAAABAAAAHAAAAAAADQDBGAQyAIMAAACQBiBCAAAiAAAgAAAIiAAIAIgIoCKAkRGEIAAggACIiA8QgMAOgAACAAAAAAAAAAQAAAAAAAAAAAAAAA==

> <PUBCHEM_IUPAC_OPENEYE_NAME>
3-(1-butyl-3-piperidyl)benzonitrile

> <PUBCHEM_IUPAC_CAS_NAME>
3-(1-butyl-3-piperidinyl)benzonitrile

> <PUBCHEM_IUPAC_NAME>
3-(1-butylpiperidin-3-yl)benzonitrile

> <PUBCHEM_IUPAC_SYSTEMATIC_NAME>
3-(1-butylpiperidin-3-yl)benzenecarbonitrile

> <PUBCHEM_IUPAC_TRADITIONAL_NAME>
3-(1-butyl-3-piperidyl)benzonitrile

> <PUBCHEM_IUPAC_INCHI>
InChI=1S/C16H22N2/c1-2-3-9-18-10-5-8-16(13-18)15-7-4-6-14(11-15)12-17/h4,6-7,11,16H,2-3,5,8-10,13H2,1H3

> <PUBCHEM_IUPAC_INCHIKEY>
RBAZQAAINJJBRX-UHFFFAOYSA-N

> <PUBCHEM_XLOGP3_AA>
3.5

> <PUBCHEM_EXACT_MASS>
242.178299

> <PUBCHEM_MOLECULAR_FORMULA>
C16H22N2

> <PUBCHEM_MOLECULAR_WEIGHT>
242.35928

> <PUBCHEM_OPENEYE_CAN_SMILES>
CCCCN1CCCC(C1)C2=CC=CC(=C2)C#N

> <PUBCHEM_OPENEYE_ISO_SMILES>
CCCCN1CCCC(C1)C2=CC=CC(=C2)C#N

> <PUBCHEM_CACTVS_TPSA>
27

> <PUBCHEM_MONOISOTOPIC_WEIGHT>
242.178299

> <PUBCHEM_TOTAL_CHARGE>
0

> <PUBCHEM_HEAVY_ATOM_COUNT>
18

> <PUBCHEM_ATOM_DEF_STEREO_COUNT>
0

> <PUBCHEM_ATOM_UDEF_STEREO_COUNT>
1

> <PUBCHEM_BOND_DEF_STEREO_COUNT>
0

> <PUBCHEM_BOND_UDEF_STEREO_COUNT>
0

> <PUBCHEM_ISOTOPIC_ATOM_COUNT>
0

> <PUBCHEM_COMPONENT_COUNT>
1

> <PUBCHEM_CACTVS_TAUTO_COUNT>
1

> <PUBCHEM_COORDINATE_TYPE>
1

> <PUBCHEM_BONDANNOTATIONS>
12  14  8

$$$$
27173023
  CDK     1110141358

 49 50  0  0  0  0  0  0  0  0999 V2000
    4.5981    0.7500    0.0000 O   0  0  0  0  0  0  0  0  0  0  0  0
    5.4641    2.2500    0.0000 O   0  0  0  0  0  0  0  0  0  0  0  0
    2.0000   -6.7500    0.0000 O   0  0  0  0  0  0  0  0  0  0  0  0
    3.7321   -6.7500    0.0000 O   0  0  0  0  0  0  0  0  0  0  0  0
    6.3301    5.7500    0.0000 O   0  0  0  0  0  0  0  0  0  0  0  0
    2.8660   -0.2500    0.0000 N   0  0  0  0  0  0  0  0  0  0  0  0
    2.8660   -2.2500    0.0000 N   0  0  0  0  0  0  0  0  0  0  0  0
    3.7321    2.2500    0.0000 N   0  0  0  0  0  0  0  0  0  0  0  0
    2.8660   -6.2500    0.0000 N   0  0  0  0  0  0  0  0  0  0  0  0
    4.5981    3.7500    0.0000 N   0  0  0  0  0  0  0  0  0  0  0  0
    2.0000   -0.7500    0.0000 C   0  0  0  0  0  0  0  0  0  0  0  0
    3.7321   -0.7500    0.0000 C   0  0  0  0  0  0  0  0  0  0  0  0
    2.0000   -1.7500    0.0000 C   0  0  0  0  0  0  0  0  0  0  0  0
    3.7321   -1.7500    0.0000 C   0  0  0  0  0  0  0  0  0  0  0  0
    2.8660    0.7500    0.0000 C   0  0  0  0  0  0  0  0  0  0  0  0
    2.8660   -3.2500    0.0000 C   0  0  0  0  0  0  0  0  0  0  0  0
    3.7321    1.2500    0.0000 C   0  0  0  0  0  0  0  0  0  0  0  0
    3.7321   -3.7500    0.0000 C   0  0  0  0  0  0  0  0  0  0  0  0
    2.0000   -3.7500    0.0000 C   0  0  0  0  0  0  0  0  0  0  0  0
    3.7321   -4.7500    0.0000 C   0  0  0  0  0  0  0  0  0  0  0  0
    2.0000   -4.7500    0.0000 C   0  0  0  0  0  0  0  0  0  0  0  0
    2.8660   -5.2500    0.0000 C   0  0  0  0  0  0  0  0  0  0  0  0
    4.5981    2.7500    0.0000 C   0  0  0  0  0  0  0  0  0  0  0  0
    5.4641    4.2500    0.0000 C   0  0  0  0  0  0  0  0  0  0  0  0
    5.4641    5.2500    0.0000 C   0  0  0  0  0  0  0  0  0  0  0  0
    6.3301    6.7500    0.0000 C   0  0  0  0  0  0  0  0  0  0  0  0
    1.7880   -0.1674    0.0000 H   0  0  0  0  0  0  0  0  0  0  0  0
    1.3894   -0.8577    0.0000 H   0  0  0  0  0  0  0  0  0  0  0  0
    4.3426   -0.8577    0.0000 H   0  0  0  0  0  0  0  0  0  0  0  0
    3.9441   -0.1674    0.0000 H   0  0  0  0  0  0  0  0  0  0  0  0
    1.3894   -1.6423    0.0000 H   0  0  0  0  0  0  0  0  0  0  0  0
    1.7880   -2.3326    0.0000 H   0  0  0  0  0  0  0  0  0  0  0  0
    3.9441   -2.3326    0.0000 H   0  0  0  0  0  0  0  0  0  0  0  0
    4.3426   -1.6423    0.0000 H   0  0  0  0  0  0  0  0  0  0  0  0
    2.6540    1.3326    0.0000 H   0  0  0  0  0  0  0  0  0  0  0  0
    2.2554    0.6423    0.0000 H   0  0  0  0  0  0  0  0  0  0  0  0
    4.2690   -3.4400    0.0000 H   0  0  0  0  0  0  0  0  0  0  0  0
    1.4631   -3.4400    0.0000 H   0  0  0  0  0  0  0  0  0  0  0  0
    4.2690   -5.0600    0.0000 H   0  0  0  0  0  0  0  0  0  0  0  0
    1.4631   -5.0600    0.0000 H   0  0  0  0  0  0  0  0  0  0  0  0
    3.1951    2.5600    0.0000 H   0  0  0  0  0  0  0  0  0  0  0  0
    4.0611    4.0600    0.0000 H   0  0  0  0  0  0  0  0  0  0  0  0
    5.6762    3.6674    0.0000 H   0  0  0  0  0  0  0  0  0  0  0  0
    6.0747    4.3577    0.0000 H   0  0  0  0  0  0  0  0  0  0  0  0
    5.2521    5.8326    0.0000 H   0  0  0  0  0  0  0  0  0  0  0  0
    4.8535    5.1423    0.0000 H   0  0  0  0  0  0  0  0  0  0  0  0
    6.9501    6.7500    0.0000 H   0  0  0  0  0  0  0  0  0  0  0  0
    6.3301    7.3700    0.0000 H   0  0  0  0  0  0  0  0  0  0  0  0
    5.7101    6.7500    0.0000 H   0  0  0  0  0  0  0  0  0  0  0  0
  1 17  2  0  0  0  0 
  2 23  2  0  0  0  0 
  3  9  1  0  0  0  0 
  4  9  2  0  0  0  0 
  5 25  1  0  0  0  0 
  5 26  1  0  0  0  0 
  6 11  1  0  0  0  0 
  6 12  1  0  0  0  0 
  6 15  1  0  0  0  0 
  7 13  1  0  0  0  0 
  7 14  1  0  0  0  0 
  7 16  1  0  0  0  0 
  8 17  1  0  0  0  0 
  8 23  1  0  0  0  0 
  8 41  1  0  0  0  0 
  9 22  1  0  0  0  0 
 10 23  1  0  0  0  0 
 10 24  1  0  0  0  0 
 10 42  1  0  0  0  0 
 11 13  1  0  0  0  0 
 11 27  1  0  0  0  0 
 11 28  1  0  0  0  0 
 12 14  1  0  0  0  0 
 12 29  1  0  0  0  0 
 12 30  1  0  0  0  0 
 13 31  1  0  0  0  0 
 13 32  1  0  0  0  0 
 14 33  1  0  0  0  0 
 14 34  1  0  0  0  0 
 15 17  1  0  0  0  0 
 15 35  1  0  0  0  0 
 15 36  1  0  0  0  0 
 16 18  2  0  0  0  0 
 16 19  1  0  0  0  0 
 18 20  1  0  0  0  0 
 18 37  1  0  0  0  0 
 19 21  2  0  0  0  0 
 19 38  1  0  0  0  0 
 20 22  2  0  0  0  0 
 20 39  1  0  0  0  0 
 21 22  1  0  0  0  0 
 21 40  1  0  0  0  0 
 24 25  1  0  0  0  0 
 24 43  1  0  0  0  0 
 24 44  1  0  0  0  0 
 25 45  1  0  0  0  0 
 25 46  1  0  0  0  0 
 26 47  1  0  0  0  0 
 26 48  1  0  0  0  0 
 26 49  1  0  0  0  0 
M  CHG  1   3  -1
M  CHG  1   9   1
M  END
> <cdk:Title>
27173023

> <cdk:Remark>
null

> <PUBCHEM_COMPOUND_CID>
27173023

> <PUBCHEM_COMPOUND_CANONICALIZED>
1

> <PUBCHEM_CACTVS_COMPLEXITY>
482

> <PUBCHEM_CACTVS_HBOND_ACCEPTOR>
7

> <PUBCHEM_CACTVS_HBOND_DONOR>
2

> <PUBCHEM_CACTVS_ROTATABLE_BOND>
6

> <PUBCHEM_CACTVS_SUBSKEYS>
AAADceB7uAAAAAAAAAAAAAAAAAAAAAAAAAA8QAAAAAAAAAABAAAAHgAUAAAACAjhkAYzwIPQRACJACVSUwCCAAAhAgAoiICIZIqKYCLAkbGVIAholyLYyAcQAAAAAACAAAAAAAAAAQAAAAAAAAAAAAAAAA==

> <PUBCHEM_IUPAC_OPENEYE_NAME>
N-(2-methoxyethylcarbamoyl)-2-[4-(4-nitrophenyl)piperazin-1-yl]acetamide

> <PUBCHEM_IUPAC_CAS_NAME>
N-[(2-methoxyethylamino)-oxomethyl]-2-[4-(4-nitrophenyl)-1-piperazinyl]acetamide

> <PUBCHEM_IUPAC_NAME>
N-(2-methoxyethylcarbamoyl)-2-[4-(4-nitrophenyl)piperazin-1-yl]acetamide

> <PUBCHEM_IUPAC_SYSTEMATIC_NAME>
N-(2-methoxyethylcarbamoyl)-2-[4-(4-nitrophenyl)piperazin-1-yl]ethanamide

> <PUBCHEM_IUPAC_TRADITIONAL_NAME>
N-(2-methoxyethylcarbamoyl)-2-[4-(4-nitrophenyl)piperazino]acetamide

> <PUBCHEM_IUPAC_INCHI>
InChI=1S/C16H23N5O5/c1-26-11-6-17-16(23)18-15(22)12-19-7-9-20(10-8-19)13-2-4-14(5-3-13)21(24)25/h2-5H,6-12H2,1H3,(H2,17,18,22,23)

> <PUBCHEM_IUPAC_INCHIKEY>
RSAGYZSKVXVJEP-UHFFFAOYSA-N

> <PUBCHEM_XLOGP3_AA>
1

> <PUBCHEM_EXACT_MASS>
365.169919

> <PUBCHEM_MOLECULAR_FORMULA>
C16H23N5O5

> <PUBCHEM_MOLECULAR_WEIGHT>
365.38432

> <PUBCHEM_OPENEYE_CAN_SMILES>
COCCNC(=O)NC(=O)CN1CCN(CC1)C2=CC=C(C=C2)[N+](=O)[O-]

> <PUBCHEM_OPENEYE_ISO_SMILES>
COCCNC(=O)NC(=O)CN1CCN(CC1)C2=CC=C(C=C2)[N+](=O)[O-]

> <PUBCHEM_CACTVS_TPSA>
120

> <PUBCHEM_MONOISOTOPIC_WEIGHT>
365.169919

> <PUBCHEM_TOTAL_CHARGE>
0

> <PUBCHEM_HEAVY_ATOM_COUNT>
26

> <PUBCHEM_ATOM_DEF_STEREO_COUNT>
0

> <PUBCHEM_ATOM_UDEF_STEREO_COUNT>
0

> <PUBCHEM_BOND_DEF_STEREO_COUNT>
0

> <PUBCHEM_BOND_UDEF_STEREO_COUNT>
0

> <PUBCHEM_ISOTOPIC_ATOM_COUNT>
0

> <PUBCHEM_COMPONENT_COUNT>
1

> <PUBCHEM_CACTVS_TAUTO_COUNT>
5

> <PUBCHEM_COORDINATE_TYPE>
1

> <PUBCHEM_BONDANNOTATIONS>
16  18  8

$$$$
