17679549
  CDK     1110140948

 47 49  0  0  0  0  0  0  0  0999 V2000
    2.8660   -6.3965    0.0000 Br  0  0  0  0  0  0  0  0  0  0  0  0
    4.5981   -0.3965    0.0000 S   0  0  0  0  0  0  0  0  0  0  0  0
    7.2682    3.6559    0.0000 F   0  0  0  0  0  0  0  0  0  0  0  0
    5.2791    3.8649    0.0000 O   0  0  0  0  0  0  0  0  0  0  0  0
    4.5981   -2.3965    0.0000 O   0  0  0  0  0  0  0  0  0  0  0  0
    5.4071    1.1913    0.0000 N   0  0  0  0  0  0  0  0  0  0  0  0
    4.0981    2.1424    0.0000 N   0  0  0  0  0  0  0  0  0  0  0  0
    3.7891    1.1913    0.0000 N   0  0  0  0  0  0  0  0  0  0  0  0
    2.8660   -2.3965    0.0000 N   0  0  0  0  0  0  0  0  0  0  0  0
    5.0981    2.1424    0.0000 C   0  0  0  0  0  0  0  0  0  0  0  0
    6.3582    0.8823    0.0000 C   0  0  0  0  0  0  0  0  0  0  0  0
    4.5981    0.6035    0.0000 C   0  0  0  0  0  0  0  0  0  0  0  0
    5.6859    2.9514    0.0000 C   0  0  0  0  0  0  0  0  0  0  0  0
    3.7320   -0.8965    0.0000 C   0  0  0  0  0  0  0  0  0  0  0  0
    7.1013    1.5514    0.0000 C   0  0  0  0  0  0  0  0  0  0  0  0
    5.8669    4.6739    0.0000 C   0  0  0  0  0  0  0  0  0  0  0  0
    3.7320   -1.8965    0.0000 C   0  0  0  0  0  0  0  0  0  0  0  0
    2.8660   -3.3965    0.0000 C   0  0  0  0  0  0  0  0  0  0  0  0
    6.8614    4.5694    0.0000 C   0  0  0  0  0  0  0  0  0  0  0  0
    5.4602    5.5875    0.0000 C   0  0  0  0  0  0  0  0  0  0  0  0
    2.0000   -3.8965    0.0000 C   0  0  0  0  0  0  0  0  0  0  0  0
    3.7320   -3.8965    0.0000 C   0  0  0  0  0  0  0  0  0  0  0  0
    8.0524    1.2424    0.0000 C   0  0  0  0  0  0  0  0  0  0  0  0
    7.4492    5.3784    0.0000 C   0  0  0  0  0  0  0  0  0  0  0  0
    6.0480    6.3965    0.0000 C   0  0  0  0  0  0  0  0  0  0  0  0
    7.0425    6.2920    0.0000 C   0  0  0  0  0  0  0  0  0  0  0  0
    2.0000   -4.8965    0.0000 C   0  0  0  0  0  0  0  0  0  0  0  0
    3.7320   -4.8965    0.0000 C   0  0  0  0  0  0  0  0  0  0  0  0
    2.8660   -5.3965    0.0000 C   0  0  0  0  0  0  0  0  0  0  0  0
    6.0671    0.3348    0.0000 H   0  0  0  0  0  0  0  0  0  0  0  0
    6.8467    0.5006    0.0000 H   0  0  0  0  0  0  0  0  0  0  0  0
    6.1166    2.5054    0.0000 H   0  0  0  0  0  0  0  0  0  0  0  0
    6.1999    3.2981    0.0000 H   0  0  0  0  0  0  0  0  0  0  0  0
    3.5200   -0.3139    0.0000 H   0  0  0  0  0  0  0  0  0  0  0  0
    3.1215   -1.0042    0.0000 H   0  0  0  0  0  0  0  0  0  0  0  0
    6.9724    2.1579    0.0000 H   0  0  0  0  0  0  0  0  0  0  0  0
    2.3291   -2.0865    0.0000 H   0  0  0  0  0  0  0  0  0  0  0  0
    4.8436    5.6523    0.0000 H   0  0  0  0  0  0  0  0  0  0  0  0
    1.4631   -3.5865    0.0000 H   0  0  0  0  0  0  0  0  0  0  0  0
    4.2690   -3.5865    0.0000 H   0  0  0  0  0  0  0  0  0  0  0  0
    8.1813    0.6359    0.0000 H   0  0  0  0  0  0  0  0  0  0  0  0
    8.5131    1.6572    0.0000 H   0  0  0  0  0  0  0  0  0  0  0  0
    8.0658    5.3136    0.0000 H   0  0  0  0  0  0  0  0  0  0  0  0
    5.7958    6.9629    0.0000 H   0  0  0  0  0  0  0  0  0  0  0  0
    7.4069    6.7936    0.0000 H   0  0  0  0  0  0  0  0  0  0  0  0
    1.4631   -5.2065    0.0000 H   0  0  0  0  0  0  0  0  0  0  0  0
    4.2690   -5.2065    0.0000 H   0  0  0  0  0  0  0  0  0  0  0  0
  1 29  1  0  0  0  0 
  2 12  1  0  0  0  0 
  2 14  1  0  0  0  0 
  3 19  1  0  0  0  0 
  4 13  1  0  0  0  0 
  4 16  1  0  0  0  0 
  5 17  2  0  0  0  0 
  6 10  1  0  0  0  0 
  6 11  1  0  0  0  0 
  6 12  1  0  0  0  0 
  7  8  1  0  0  0  0 
  7 10  2  0  0  0  0 
  8 12  2  0  0  0  0 
  9 17  1  0  0  0  0 
  9 18  1  0  0  0  0 
  9 37  1  0  0  0  0 
 10 13  1  0  0  0  0 
 11 15  1  0  0  0  0 
 11 30  1  0  0  0  0 
 11 31  1  0  0  0  0 
 13 32  1  0  0  0  0 
 13 33  1  0  0  0  0 
 14 17  1  0  0  0  0 
 14 34  1  0  0  0  0 
 14 35  1  0  0  0  0 
 15 23  2  0  0  0  0 
 15 36  1  0  0  0  0 
 16 19  1  0  0  0  0 
 16 20  2  0  0  0  0 
 18 21  2  0  0  0  0 
 18 22  1  0  0  0  0 
 19 24  2  0  0  0  0 
 20 25  1  0  0  0  0 
 20 38  1  0  0  0  0 
 21 27  1  0  0  0  0 
 21 39  1  0  0  0  0 
 22 28  2  0  0  0  0 
 22 40  1  0  0  0  0 
 23 41  1  0  0  0  0 
 23 42  1  0  0  0  0 
 24 26  1  0  0  0  0 
 24 43  1  0  0  0  0 
 25 26  2  0  0  0  0 
 25 44  1  0  0  0  0 
 26 45  1  0  0  0  0 
 27 29  2  0  0  0  0 
 27 46  1  0  0  0  0 
 28 29  1  0  0  0  0 
 28 47  1  0  0  0  0 
M  END
> <cdk:Title>
17679549

> <cdk:Remark>
null

> <PUBCHEM_COMPOUND_CID>
17679549

> <PUBCHEM_COMPOUND_CANONICALIZED>
1

> <PUBCHEM_CACTVS_COMPLEXITY>
539

> <PUBCHEM_CACTVS_HBOND_ACCEPTOR>
6

> <PUBCHEM_CACTVS_HBOND_DONOR>
1

> <PUBCHEM_CACTVS_ROTATABLE_BOND>
9

> <PUBCHEM_CACTVS_SUBSKEYS>
AAADceB7sQBAEAAAAAAAAAAAAAAAAWAAAAAwYAAAAAAAAAAB0AAAHwRYAAABqAzl0w6x1ofMFAiqACdydASS2AthIrQdyAAebKiOLiLEuZuHOCjk3BPY6heQQAAAAAAgAAAAAAAAAEAAAAAAAAAAAAAAAA==

> <PUBCHEM_IUPAC_OPENEYE_NAME>
2-[[4-allyl-5-[(2-fluorophenoxy)methyl]-1,2,4-triazol-3-yl]sulfanyl]-N-(4-bromophenyl)acetamide

> <PUBCHEM_IUPAC_CAS_NAME>
N-(4-bromophenyl)-2-[[5-[(2-fluorophenoxy)methyl]-4-prop-2-enyl-1,2,4-triazol-3-yl]thio]acetamide

> <PUBCHEM_IUPAC_NAME>
N-(4-bromophenyl)-2-[[5-[(2-fluorophenoxy)methyl]-4-prop-2-enyl-1,2,4-triazol-3-yl]sulfanyl]acetamide

> <PUBCHEM_IUPAC_SYSTEMATIC_NAME>
N-(4-bromophenyl)-2-[[5-[(2-fluoranylphenoxy)methyl]-4-prop-2-enyl-1,2,4-triazol-3-yl]sulfanyl]ethanamide

> <PUBCHEM_IUPAC_TRADITIONAL_NAME>
2-[[4-allyl-5-[(2-fluorophenoxy)methyl]-1,2,4-triazol-3-yl]thio]-N-(4-bromophenyl)acetamide

> <PUBCHEM_IUPAC_INCHI>
InChI=1S/C20H18BrFN4O2S/c1-2-11-26-18(12-28-17-6-4-3-5-16(17)22)24-25-20(26)29-13-19(27)23-15-9-7-14(21)8-10-15/h2-10H,1,11-13H2,(H,23,27)

> <PUBCHEM_IUPAC_INCHIKEY>
RFZRKTMAQWPPQX-UHFFFAOYSA-N

> <PUBCHEM_XLOGP3_AA>
4.2

> <PUBCHEM_EXACT_MASS>
476.031787

> <PUBCHEM_MOLECULAR_FORMULA>
C20H18BrFN4O2S

> <PUBCHEM_MOLECULAR_WEIGHT>
477.349923

> <PUBCHEM_OPENEYE_CAN_SMILES>
C=CCN1C(=NN=C1SCC(=O)NC2=CC=C(C=C2)Br)COC3=CC=CC=C3F

> <PUBCHEM_OPENEYE_ISO_SMILES>
C=CCN1C(=NN=C1SCC(=O)NC2=CC=C(C=C2)Br)COC3=CC=CC=C3F

> <PUBCHEM_CACTVS_TPSA>
94.3

> <PUBCHEM_MONOISOTOPIC_WEIGHT>
476.031787

> <PUBCHEM_TOTAL_CHARGE>
0

> <PUBCHEM_HEAVY_ATOM_COUNT>
29

> <PUBCHEM_ATOM_DEF_STEREO_COUNT>
0

> <PUBCHEM_ATOM_UDEF_STEREO_COUNT>
0

> <PUBCHEM_BOND_DEF_STEREO_COUNT>
0

> <PUBCHEM_BOND_UDEF_STEREO_COUNT>
0

> <PUBCHEM_ISOTOPIC_ATOM_COUNT>
0

> <PUBCHEM_COMPONENT_COUNT>
1

> <PUBCHEM_CACTVS_TAUTO_COUNT>
2

> <PUBCHEM_COORDINATE_TYPE>
1

> <PUBCHEM_BONDANNOTATIONS>
16  19  8

$$$$
