3390483
  CDK     1110140953

 57 60  0  0  0  0  0  0  0  0999 V2000
    7.0692    4.3907    0.0000 O   0  0  0  0  0  0  0  0  0  0  0  0
    4.2493   -0.9571    0.0000 O   0  0  0  0  0  0  0  0  0  0  0  0
    4.8936    4.3907    0.0000 O   0  0  0  0  0  0  0  0  0  0  0  0
    3.5827    3.9853    0.0000 O   0  0  0  0  0  0  0  0  0  0  0  0
    7.9494    1.3435    0.0000 O   0  0  0  0  0  0  0  0  0  0  0  0
    8.3801    3.9853    0.0000 O   0  0  0  0  0  0  0  0  0  0  0  0
    5.1724    2.6307    0.0000 N   0  0  0  0  0  0  0  0  0  0  0  0
    5.9814    2.0429    0.0000 C   0  0  3  0  0  0  0  0  0  0  0  0
    6.7904    2.6307    0.0000 C   0  0  0  0  0  0  0  0  0  0  0  0
    5.9814    1.0429    0.0000 C   0  0  0  0  0  0  0  0  0  0  0  0
    4.2213    2.3216    0.0000 C   0  0  0  0  0  0  0  0  0  0  0  0
    5.4814    3.5817    0.0000 C   0  0  0  0  0  0  0  0  0  0  0  0
    6.4814    3.5817    0.0000 C   0  0  0  0  0  0  0  0  0  0  0  0
    5.1153    0.5429    0.0000 C   0  0  0  0  0  0  0  0  0  0  0  0
    7.7414    2.3216    0.0000 C   0  0  0  0  0  0  0  0  0  0  0  0
    6.8474    0.5429    0.0000 C   0  0  0  0  0  0  0  0  0  0  0  0
    3.4782    2.9908    0.0000 C   0  0  0  0  0  0  0  0  0  0  0  0
    5.1153   -0.4571    0.0000 C   0  0  0  0  0  0  0  0  0  0  0  0
    6.8474   -0.4571    0.0000 C   0  0  0  0  0  0  0  0  0  0  0  0
    5.9814   -0.9571    0.0000 C   0  0  0  0  0  0  0  0  0  0  0  0
    8.4846    2.9908    0.0000 C   0  0  0  0  0  0  0  0  0  0  0  0
    3.3833   -2.4571    0.0000 C   0  0  0  0  0  0  0  0  0  0  0  0
    4.2493   -1.9571    0.0000 C   0  0  0  0  0  0  0  0  0  0  0  0
    3.3833   -3.4571    0.0000 C   0  0  0  0  0  0  0  0  0  0  0  0
    2.5000    2.7829    0.0000 C   0  0  0  0  0  0  0  0  0  0  0  0
    2.5173   -3.9571    0.0000 C   0  0  0  0  0  0  0  0  0  0  0  0
    2.0000    3.6489    0.0000 C   0  0  0  0  0  0  0  0  0  0  0  0
    9.4627    2.7829    0.0000 C   0  0  0  0  0  0  0  0  0  0  0  0
    2.6691    4.3920    0.0000 C   0  0  0  0  0  0  0  0  0  0  0  0
    2.5173   -4.9571    0.0000 C   0  0  0  0  0  0  0  0  0  0  0  0
    9.9627    3.6489    0.0000 C   0  0  0  0  0  0  0  0  0  0  0  0
    9.2936    4.3920    0.0000 C   0  0  0  0  0  0  0  0  0  0  0  0
    6.7387    1.6570    0.0000 H   0  0  0  0  0  0  0  0  0  0  0  0
    3.7327    1.9399    0.0000 H   0  0  0  0  0  0  0  0  0  0  0  0
    4.5124    1.7742    0.0000 H   0  0  0  0  0  0  0  0  0  0  0  0
    4.5784    0.8529    0.0000 H   0  0  0  0  0  0  0  0  0  0  0  0
    7.3843    0.8529    0.0000 H   0  0  0  0  0  0  0  0  0  0  0  0
    7.3843   -0.7671    0.0000 H   0  0  0  0  0  0  0  0  0  0  0  0
    5.9814   -1.5771    0.0000 H   0  0  0  0  0  0  0  0  0  0  0  0
    3.1712   -1.8745    0.0000 H   0  0  0  0  0  0  0  0  0  0  0  0
    2.7727   -2.5648    0.0000 H   0  0  0  0  0  0  0  0  0  0  0  0
    4.4614   -2.5397    0.0000 H   0  0  0  0  0  0  0  0  0  0  0  0
    4.8599   -1.8495    0.0000 H   0  0  0  0  0  0  0  0  0  0  0  0
    3.5953   -4.0397    0.0000 H   0  0  0  0  0  0  0  0  0  0  0  0
    3.9939   -3.3495    0.0000 H   0  0  0  0  0  0  0  0  0  0  0  0
    6.8170    4.9571    0.0000 H   0  0  0  0  0  0  0  0  0  0  0  0
    2.2478    2.2165    0.0000 H   0  0  0  0  0  0  0  0  0  0  0  0
    2.3052   -3.3745    0.0000 H   0  0  0  0  0  0  0  0  0  0  0  0
    1.9067   -4.0648    0.0000 H   0  0  0  0  0  0  0  0  0  0  0  0
    1.3834    3.7137    0.0000 H   0  0  0  0  0  0  0  0  0  0  0  0
    9.7149    2.2165    0.0000 H   0  0  0  0  0  0  0  0  0  0  0  0
    2.5402    4.9985    0.0000 H   0  0  0  0  0  0  0  0  0  0  0  0
    1.8973   -4.9571    0.0000 H   0  0  0  0  0  0  0  0  0  0  0  0
    2.5173   -5.5771    0.0000 H   0  0  0  0  0  0  0  0  0  0  0  0
    3.1373   -4.9571    0.0000 H   0  0  0  0  0  0  0  0  0  0  0  0
   10.5793    3.7137    0.0000 H   0  0  0  0  0  0  0  0  0  0  0  0
    9.4225    4.9985    0.0000 H   0  0  0  0  0  0  0  0  0  0  0  0
  1 13  1  0  0  0  0 
  1 46  1  0  0  0  0 
  2 18  1  0  0  0  0 
  2 23  1  0  0  0  0 
  3 12  2  0  0  0  0 
  4 17  1  0  0  0  0 
  4 29  1  0  0  0  0 
  5 15  2  0  0  0  0 
  6 21  1  0  0  0  0 
  6 32  1  0  0  0  0 
  7  8  1  0  0  0  0 
  7 11  1  0  0  0  0 
  7 12  1  0  0  0  0 
  8  9  1  0  0  0  0 
  8 10  1  0  0  0  0 
  8 33  1  0  0  0  0 
  9 13  2  0  0  0  0 
  9 15  1  0  0  0  0 
 10 14  2  0  0  0  0 
 10 16  1  0  0  0  0 
 11 17  1  0  0  0  0 
 11 34  1  0  0  0  0 
 11 35  1  0  0  0  0 
 12 13  1  0  0  0  0 
 14 18  1  0  0  0  0 
 14 36  1  0  0  0  0 
 15 21  1  0  0  0  0 
 16 19  2  0  0  0  0 
 16 37  1  0  0  0  0 
 17 25  2  0  0  0  0 
 18 20  2  0  0  0  0 
 19 20  1  0  0  0  0 
 19 38  1  0  0  0  0 
 20 39  1  0  0  0  0 
 21 28  2  0  0  0  0 
 22 23  1  0  0  0  0 
 22 24  1  0  0  0  0 
 22 40  1  0  0  0  0 
 22 41  1  0  0  0  0 
 23 42  1  0  0  0  0 
 23 43  1  0  0  0  0 
 24 26  1  0  0  0  0 
 24 44  1  0  0  0  0 
 24 45  1  0  0  0  0 
 25 27  1  0  0  0  0 
 25 47  1  0  0  0  0 
 26 30  1  0  0  0  0 
 26 48  1  0  0  0  0 
 26 49  1  0  0  0  0 
 27 29  2  0  0  0  0 
 27 50  1  0  0  0  0 
 28 31  1  0  0  0  0 
 28 51  1  0  0  0  0 
 29 52  1  0  0  0  0 
 30 53  1  0  0  0  0 
 30 54  1  0  0  0  0 
 30 55  1  0  0  0  0 
 31 32  2  0  0  0  0 
 31 56  1  0  0  0  0 
 32 57  1  0  0  0  0 
M  END
> <cdk:Title>
3390483

> <cdk:Remark>
null

> <PUBCHEM_COMPOUND_CID>
3390483

> <PUBCHEM_COMPOUND_CANONICALIZED>
1

> <PUBCHEM_CACTVS_COMPLEXITY>
707

> <PUBCHEM_CACTVS_HBOND_ACCEPTOR>
6

> <PUBCHEM_CACTVS_HBOND_DONOR>
1

> <PUBCHEM_CACTVS_ROTATABLE_BOND>
10

> <PUBCHEM_CACTVS_SUBSKEYS>
AAADceB6OAAAAAAAAAAAAAAAAAAAASJEAAAwAAAAAAAAAAAB8AAAHgAACAAADCzhmAYyBoMABkCIAqlSkAKCCAAkIAAIiAHODMgOJjqEtT+HOSjkxhGYqYe83/KuAAABAAAAAAAAAAIAAAAAAAAAAAAAAA==

> <PUBCHEM_IUPAC_OPENEYE_NAME>
3-(furan-2-carbonyl)-1-(2-furylmethyl)-4-hydroxy-2-(3-pentoxyphenyl)-2H-pyrrol-5-one

> <PUBCHEM_IUPAC_CAS_NAME>
1-(2-furanylmethyl)-3-[2-furanyl(oxo)methyl]-4-hydroxy-2-(3-pentoxyphenyl)-2H-pyrrol-5-one

> <PUBCHEM_IUPAC_NAME>
3-(furan-2-carbonyl)-1-(furan-2-ylmethyl)-4-hydroxy-2-(3-pentoxyphenyl)-2H-pyrrol-5-one

> <PUBCHEM_IUPAC_SYSTEMATIC_NAME>
3-(furan-2-ylcarbonyl)-1-(furan-2-ylmethyl)-4-oxidanyl-2-(3-pentoxyphenyl)-2H-pyrrol-5-one

> <PUBCHEM_IUPAC_TRADITIONAL_NAME>
5-(3-amoxyphenyl)-1-(2-furfuryl)-4-(2-furoyl)-3-hydroxy-3-pyrrolin-2-one

> <PUBCHEM_IUPAC_INCHI>
InChI=1S/C25H25NO6/c1-2-3-4-12-30-18-9-5-8-17(15-18)22-21(23(27)20-11-7-14-32-20)24(28)25(29)26(22)16-19-10-6-13-31-19/h5-11,13-15,22,28H,2-4,12,16H2,1H3

> <PUBCHEM_IUPAC_INCHIKEY>
JLFPGDDYKWCHOG-UHFFFAOYSA-N

> <PUBCHEM_XLOGP3_AA>
4.7

> <PUBCHEM_EXACT_MASS>
435.168188

> <PUBCHEM_MOLECULAR_FORMULA>
C25H25NO6

> <PUBCHEM_MOLECULAR_WEIGHT>
435.4691

> <PUBCHEM_OPENEYE_CAN_SMILES>
CCCCCOC1=CC=CC(=C1)C2C(=C(C(=O)N2CC3=CC=CO3)O)C(=O)C4=CC=CO4

> <PUBCHEM_OPENEYE_ISO_SMILES>
CCCCCOC1=CC=CC(=C1)C2C(=C(C(=O)N2CC3=CC=CO3)O)C(=O)C4=CC=CO4

> <PUBCHEM_CACTVS_TPSA>
93.1

> <PUBCHEM_MONOISOTOPIC_WEIGHT>
435.168188

> <PUBCHEM_TOTAL_CHARGE>
0

> <PUBCHEM_HEAVY_ATOM_COUNT>
32

> <PUBCHEM_ATOM_DEF_STEREO_COUNT>
0

> <PUBCHEM_ATOM_UDEF_STEREO_COUNT>
1

> <PUBCHEM_BOND_DEF_STEREO_COUNT>
0

> <PUBCHEM_BOND_UDEF_STEREO_COUNT>
0

> <PUBCHEM_ISOTOPIC_ATOM_COUNT>
0

> <PUBCHEM_COMPONENT_COUNT>
1

> <PUBCHEM_CACTVS_TAUTO_COUNT>
3

> <PUBCHEM_COORDINATE_TYPE>
1

> <PUBCHEM_BONDANNOTATIONS>
10  14  8

$$$$
3390483
  CDK     1110141344

 57 60  0  0  0  0  0  0  0  0999 V2000
    7.0692    4.3907    0.0000 O   0  0  0  0  0  0  0  0  0  0  0  0
    4.2493   -0.9571    0.0000 O   0  0  0  0  0  0  0  0  0  0  0  0
    4.8936    4.3907    0.0000 O   0  0  0  0  0  0  0  0  0  0  0  0
    3.5827    3.9853    0.0000 O   0  0  0  0  0  0  0  0  0  0  0  0
    7.9494    1.3435    0.0000 O   0  0  0  0  0  0  0  0  0  0  0  0
    8.3801    3.9853    0.0000 O   0  0  0  0  0  0  0  0  0  0  0  0
    5.1724    2.6307    0.0000 N   0  0  0  0  0  0  0  0  0  0  0  0
    5.9814    2.0429    0.0000 C   0  0  3  0  0  0  0  0  0  0  0  0
    6.7904    2.6307    0.0000 C   0  0  0  0  0  0  0  0  0  0  0  0
    5.9814    1.0429    0.0000 C   0  0  0  0  0  0  0  0  0  0  0  0
    4.2213    2.3216    0.0000 C   0  0  0  0  0  0  0  0  0  0  0  0
    5.4814    3.5817    0.0000 C   0  0  0  0  0  0  0  0  0  0  0  0
    6.4814    3.5817    0.0000 C   0  0  0  0  0  0  0  0  0  0  0  0
    5.1153    0.5429    0.0000 C   0  0  0  0  0  0  0  0  0  0  0  0
    7.7414    2.3216    0.0000 C   0  0  0  0  0  0  0  0  0  0  0  0
    6.8474    0.5429    0.0000 C   0  0  0  0  0  0  0  0  0  0  0  0
    3.4782    2.9908    0.0000 C   0  0  0  0  0  0  0  0  0  0  0  0
    5.1153   -0.4571    0.0000 C   0  0  0  0  0  0  0  0  0  0  0  0
    6.8474   -0.4571    0.0000 C   0  0  0  0  0  0  0  0  0  0  0  0
    5.9814   -0.9571    0.0000 C   0  0  0  0  0  0  0  0  0  0  0  0
    8.4846    2.9908    0.0000 C   0  0  0  0  0  0  0  0  0  0  0  0
    3.3833   -2.4571    0.0000 C   0  0  0  0  0  0  0  0  0  0  0  0
    4.2493   -1.9571    0.0000 C   0  0  0  0  0  0  0  0  0  0  0  0
    3.3833   -3.4571    0.0000 C   0  0  0  0  0  0  0  0  0  0  0  0
    2.5000    2.7829    0.0000 C   0  0  0  0  0  0  0  0  0  0  0  0
    2.5173   -3.9571    0.0000 C   0  0  0  0  0  0  0  0  0  0  0  0
    2.0000    3.6489    0.0000 C   0  0  0  0  0  0  0  0  0  0  0  0
    9.4627    2.7829    0.0000 C   0  0  0  0  0  0  0  0  0  0  0  0
    2.6691    4.3920    0.0000 C   0  0  0  0  0  0  0  0  0  0  0  0
    2.5173   -4.9571    0.0000 C   0  0  0  0  0  0  0  0  0  0  0  0
    9.9627    3.6489    0.0000 C   0  0  0  0  0  0  0  0  0  0  0  0
    9.2936    4.3920    0.0000 C   0  0  0  0  0  0  0  0  0  0  0  0
    6.7387    1.6570    0.0000 H   0  0  0  0  0  0  0  0  0  0  0  0
    3.7327    1.9399    0.0000 H   0  0  0  0  0  0  0  0  0  0  0  0
    4.5124    1.7742    0.0000 H   0  0  0  0  0  0  0  0  0  0  0  0
    4.5784    0.8529    0.0000 H   0  0  0  0  0  0  0  0  0  0  0  0
    7.3843    0.8529    0.0000 H   0  0  0  0  0  0  0  0  0  0  0  0
    7.3843   -0.7671    0.0000 H   0  0  0  0  0  0  0  0  0  0  0  0
    5.9814   -1.5771    0.0000 H   0  0  0  0  0  0  0  0  0  0  0  0
    3.1712   -1.8745    0.0000 H   0  0  0  0  0  0  0  0  0  0  0  0
    2.7727   -2.5648    0.0000 H   0  0  0  0  0  0  0  0  0  0  0  0
    4.4614   -2.5397    0.0000 H   0  0  0  0  0  0  0  0  0  0  0  0
    4.8599   -1.8495    0.0000 H   0  0  0  0  0  0  0  0  0  0  0  0
    3.5953   -4.0397    0.0000 H   0  0  0  0  0  0  0  0  0  0  0  0
    3.9939   -3.3495    0.0000 H   0  0  0  0  0  0  0  0  0  0  0  0
    6.8170    4.9571    0.0000 H   0  0  0  0  0  0  0  0  0  0  0  0
    2.2478    2.2165    0.0000 H   0  0  0  0  0  0  0  0  0  0  0  0
    2.3052   -3.3745    0.0000 H   0  0  0  0  0  0  0  0  0  0  0  0
    1.9067   -4.0648    0.0000 H   0  0  0  0  0  0  0  0  0  0  0  0
    1.3834    3.7137    0.0000 H   0  0  0  0  0  0  0  0  0  0  0  0
    9.7149    2.2165    0.0000 H   0  0  0  0  0  0  0  0  0  0  0  0
    2.5402    4.9985    0.0000 H   0  0  0  0  0  0  0  0  0  0  0  0
    1.8973   -4.9571    0.0000 H   0  0  0  0  0  0  0  0  0  0  0  0
    2.5173   -5.5771    0.0000 H   0  0  0  0  0  0  0  0  0  0  0  0
    3.1373   -4.9571    0.0000 H   0  0  0  0  0  0  0  0  0  0  0  0
   10.5793    3.7137    0.0000 H   0  0  0  0  0  0  0  0  0  0  0  0
    9.4225    4.9985    0.0000 H   0  0  0  0  0  0  0  0  0  0  0  0
  1 13  1  0  0  0  0 
  1 46  1  0  0  0  0 
  2 18  1  0  0  0  0 
  2 23  1  0  0  0  0 
  3 12  2  0  0  0  0 
  4 17  1  0  0  0  0 
  4 29  1  0  0  0  0 
  5 15  2  0  0  0  0 
  6 21  1  0  0  0  0 
  6 32  1  0  0  0  0 
  7  8  1  0  0  0  0 
  7 11  1  0  0  0  0 
  7 12  1  0  0  0  0 
  8  9  1  0  0  0  0 
  8 10  1  0  0  0  0 
  8 33  1  0  0  0  0 
  9 13  2  0  0  0  0 
  9 15  1  0  0  0  0 
 10 14  2  0  0  0  0 
 10 16  1  0  0  0  0 
 11 17  1  0  0  0  0 
 11 34  1  0  0  0  0 
 11 35  1  0  0  0  0 
 12 13  1  0  0  0  0 
 14 18  1  0  0  0  0 
 14 36  1  0  0  0  0 
 15 21  1  0  0  0  0 
 16 19  2  0  0  0  0 
 16 37  1  0  0  0  0 
 17 25  2  0  0  0  0 
 18 20  2  0  0  0  0 
 19 20  1  0  0  0  0 
 19 38  1  0  0  0  0 
 20 39  1  0  0  0  0 
 21 28  2  0  0  0  0 
 22 23  1  0  0  0  0 
 22 24  1  0  0  0  0 
 22 40  1  0  0  0  0 
 22 41  1  0  0  0  0 
 23 42  1  0  0  0  0 
 23 43  1  0  0  0  0 
 24 26  1  0  0  0  0 
 24 44  1  0  0  0  0 
 24 45  1  0  0  0  0 
 25 27  1  0  0  0  0 
 25 47  1  0  0  0  0 
 26 30  1  0  0  0  0 
 26 48  1  0  0  0  0 
 26 49  1  0  0  0  0 
 27 29  2  0  0  0  0 
 27 50  1  0  0  0  0 
 28 31  1  0  0  0  0 
 28 51  1  0  0  0  0 
 29 52  1  0  0  0  0 
 30 53  1  0  0  0  0 
 30 54  1  0  0  0  0 
 30 55  1  0  0  0  0 
 31 32  2  0  0  0  0 
 31 56  1  0  0  0  0 
 32 57  1  0  0  0  0 
M  END
> <cdk:Title>
3390483

> <cdk:Remark>
null

> <PUBCHEM_COMPOUND_CID>
3390483

> <PUBCHEM_COMPOUND_CANONICALIZED>
1

> <PUBCHEM_CACTVS_COMPLEXITY>
707

> <PUBCHEM_CACTVS_HBOND_ACCEPTOR>
6

> <PUBCHEM_CACTVS_HBOND_DONOR>
1

> <PUBCHEM_CACTVS_ROTATABLE_BOND>
10

> <PUBCHEM_CACTVS_SUBSKEYS>
AAADceB6OAAAAAAAAAAAAAAAAAAAASJEAAAwAAAAAAAAAAAB8AAAHgAACAAADCzhmAYyBoMABkCIAqlSkAKCCAAkIAAIiAHODMgOJjqEtT+HOSjkxhGYqYe83/KuAAABAAAAAAAAAAIAAAAAAAAAAAAAAA==

> <PUBCHEM_IUPAC_OPENEYE_NAME>
3-(furan-2-carbonyl)-1-(2-furylmethyl)-4-hydroxy-2-(3-pentoxyphenyl)-2H-pyrrol-5-one

> <PUBCHEM_IUPAC_CAS_NAME>
1-(2-furanylmethyl)-3-[2-furanyl(oxo)methyl]-4-hydroxy-2-(3-pentoxyphenyl)-2H-pyrrol-5-one

> <PUBCHEM_IUPAC_NAME>
3-(furan-2-carbonyl)-1-(furan-2-ylmethyl)-4-hydroxy-2-(3-pentoxyphenyl)-2H-pyrrol-5-one

> <PUBCHEM_IUPAC_SYSTEMATIC_NAME>
3-(furan-2-ylcarbonyl)-1-(furan-2-ylmethyl)-4-oxidanyl-2-(3-pentoxyphenyl)-2H-pyrrol-5-one

> <PUBCHEM_IUPAC_TRADITIONAL_NAME>
5-(3-amoxyphenyl)-1-(2-furfuryl)-4-(2-furoyl)-3-hydroxy-3-pyrrolin-2-one

> <PUBCHEM_IUPAC_INCHI>
InChI=1S/C25H25NO6/c1-2-3-4-12-30-18-9-5-8-17(15-18)22-21(23(27)20-11-7-14-32-20)24(28)25(29)26(22)16-19-10-6-13-31-19/h5-11,13-15,22,28H,2-4,12,16H2,1H3

> <PUBCHEM_IUPAC_INCHIKEY>
JLFPGDDYKWCHOG-UHFFFAOYSA-N

> <PUBCHEM_XLOGP3_AA>
4.7

> <PUBCHEM_EXACT_MASS>
435.168188

> <PUBCHEM_MOLECULAR_FORMULA>
C25H25NO6

> <PUBCHEM_MOLECULAR_WEIGHT>
435.4691

> <PUBCHEM_OPENEYE_CAN_SMILES>
CCCCCOC1=CC=CC(=C1)C2C(=C(C(=O)N2CC3=CC=CO3)O)C(=O)C4=CC=CO4

> <PUBCHEM_OPENEYE_ISO_SMILES>
CCCCCOC1=CC=CC(=C1)C2C(=C(C(=O)N2CC3=CC=CO3)O)C(=O)C4=CC=CO4

> <PUBCHEM_CACTVS_TPSA>
93.1

> <PUBCHEM_MONOISOTOPIC_WEIGHT>
435.168188

> <PUBCHEM_TOTAL_CHARGE>
0

> <PUBCHEM_HEAVY_ATOM_COUNT>
32

> <PUBCHEM_ATOM_DEF_STEREO_COUNT>
0

> <PUBCHEM_ATOM_UDEF_STEREO_COUNT>
1

> <PUBCHEM_BOND_DEF_STEREO_COUNT>
0

> <PUBCHEM_BOND_UDEF_STEREO_COUNT>
0

> <PUBCHEM_ISOTOPIC_ATOM_COUNT>
0

> <PUBCHEM_COMPONENT_COUNT>
1

> <PUBCHEM_CACTVS_TAUTO_COUNT>
3

> <PUBCHEM_COORDINATE_TYPE>
1

> <PUBCHEM_BONDANNOTATIONS>
10  14  8

$$$$
3390483
  CDK     1110141346

 57 60  0  0  0  0  0  0  0  0999 V2000
    7.0692    4.3907    0.0000 O   0  0  0  0  0  0  0  0  0  0  0  0
    4.2493   -0.9571    0.0000 O   0  0  0  0  0  0  0  0  0  0  0  0
    4.8936    4.3907    0.0000 O   0  0  0  0  0  0  0  0  0  0  0  0
    3.5827    3.9853    0.0000 O   0  0  0  0  0  0  0  0  0  0  0  0
    7.9494    1.3435    0.0000 O   0  0  0  0  0  0  0  0  0  0  0  0
    8.3801    3.9853    0.0000 O   0  0  0  0  0  0  0  0  0  0  0  0
    5.1724    2.6307    0.0000 N   0  0  0  0  0  0  0  0  0  0  0  0
    5.9814    2.0429    0.0000 C   0  0  3  0  0  0  0  0  0  0  0  0
    6.7904    2.6307    0.0000 C   0  0  0  0  0  0  0  0  0  0  0  0
    5.9814    1.0429    0.0000 C   0  0  0  0  0  0  0  0  0  0  0  0
    4.2213    2.3216    0.0000 C   0  0  0  0  0  0  0  0  0  0  0  0
    5.4814    3.5817    0.0000 C   0  0  0  0  0  0  0  0  0  0  0  0
    6.4814    3.5817    0.0000 C   0  0  0  0  0  0  0  0  0  0  0  0
    5.1153    0.5429    0.0000 C   0  0  0  0  0  0  0  0  0  0  0  0
    7.7414    2.3216    0.0000 C   0  0  0  0  0  0  0  0  0  0  0  0
    6.8474    0.5429    0.0000 C   0  0  0  0  0  0  0  0  0  0  0  0
    3.4782    2.9908    0.0000 C   0  0  0  0  0  0  0  0  0  0  0  0
    5.1153   -0.4571    0.0000 C   0  0  0  0  0  0  0  0  0  0  0  0
    6.8474   -0.4571    0.0000 C   0  0  0  0  0  0  0  0  0  0  0  0
    5.9814   -0.9571    0.0000 C   0  0  0  0  0  0  0  0  0  0  0  0
    8.4846    2.9908    0.0000 C   0  0  0  0  0  0  0  0  0  0  0  0
    3.3833   -2.4571    0.0000 C   0  0  0  0  0  0  0  0  0  0  0  0
    4.2493   -1.9571    0.0000 C   0  0  0  0  0  0  0  0  0  0  0  0
    3.3833   -3.4571    0.0000 C   0  0  0  0  0  0  0  0  0  0  0  0
    2.5000    2.7829    0.0000 C   0  0  0  0  0  0  0  0  0  0  0  0
    2.5173   -3.9571    0.0000 C   0  0  0  0  0  0  0  0  0  0  0  0
    2.0000    3.6489    0.0000 C   0  0  0  0  0  0  0  0  0  0  0  0
    9.4627    2.7829    0.0000 C   0  0  0  0  0  0  0  0  0  0  0  0
    2.6691    4.3920    0.0000 C   0  0  0  0  0  0  0  0  0  0  0  0
    2.5173   -4.9571    0.0000 C   0  0  0  0  0  0  0  0  0  0  0  0
    9.9627    3.6489    0.0000 C   0  0  0  0  0  0  0  0  0  0  0  0
    9.2936    4.3920    0.0000 C   0  0  0  0  0  0  0  0  0  0  0  0
    6.7387    1.6570    0.0000 H   0  0  0  0  0  0  0  0  0  0  0  0
    3.7327    1.9399    0.0000 H   0  0  0  0  0  0  0  0  0  0  0  0
    4.5124    1.7742    0.0000 H   0  0  0  0  0  0  0  0  0  0  0  0
    4.5784    0.8529    0.0000 H   0  0  0  0  0  0  0  0  0  0  0  0
    7.3843    0.8529    0.0000 H   0  0  0  0  0  0  0  0  0  0  0  0
    7.3843   -0.7671    0.0000 H   0  0  0  0  0  0  0  0  0  0  0  0
    5.9814   -1.5771    0.0000 H   0  0  0  0  0  0  0  0  0  0  0  0
    3.1712   -1.8745    0.0000 H   0  0  0  0  0  0  0  0  0  0  0  0
    2.7727   -2.5648    0.0000 H   0  0  0  0  0  0  0  0  0  0  0  0
    4.4614   -2.5397    0.0000 H   0  0  0  0  0  0  0  0  0  0  0  0
    4.8599   -1.8495    0.0000 H   0  0  0  0  0  0  0  0  0  0  0  0
    3.5953   -4.0397    0.0000 H   0  0  0  0  0  0  0  0  0  0  0  0
    3.9939   -3.3495    0.0000 H   0  0  0  0  0  0  0  0  0  0  0  0
    6.8170    4.9571    0.0000 H   0  0  0  0  0  0  0  0  0  0  0  0
    2.2478    2.2165    0.0000 H   0  0  0  0  0  0  0  0  0  0  0  0
    2.3052   -3.3745    0.0000 H   0  0  0  0  0  0  0  0  0  0  0  0
    1.9067   -4.0648    0.0000 H   0  0  0  0  0  0  0  0  0  0  0  0
    1.3834    3.7137    0.0000 H   0  0  0  0  0  0  0  0  0  0  0  0
    9.7149    2.2165    0.0000 H   0  0  0  0  0  0  0  0  0  0  0  0
    2.5402    4.9985    0.0000 H   0  0  0  0  0  0  0  0  0  0  0  0
    1.8973   -4.9571    0.0000 H   0  0  0  0  0  0  0  0  0  0  0  0
    2.5173   -5.5771    0.0000 H   0  0  0  0  0  0  0  0  0  0  0  0
    3.1373   -4.9571    0.0000 H   0  0  0  0  0  0  0  0  0  0  0  0
   10.5793    3.7137    0.0000 H   0  0  0  0  0  0  0  0  0  0  0  0
    9.4225    4.9985    0.0000 H   0  0  0  0  0  0  0  0  0  0  0  0
  1 13  1  0  0  0  0 
  1 46  1  0  0  0  0 
  2 18  1  0  0  0  0 
  2 23  1  0  0  0  0 
  3 12  2  0  0  0  0 
  4 17  1  0  0  0  0 
  4 29  1  0  0  0  0 
  5 15  2  0  0  0  0 
  6 21  1  0  0  0  0 
  6 32  1  0  0  0  0 
  7  8  1  0  0  0  0 
  7 11  1  0  0  0  0 
  7 12  1  0  0  0  0 
  8  9  1  0  0  0  0 
  8 10  1  0  0  0  0 
  8 33  1  0  0  0  0 
  9 13  2  0  0  0  0 
  9 15  1  0  0  0  0 
 10 14  2  0  0  0  0 
 10 16  1  0  0  0  0 
 11 17  1  0  0  0  0 
 11 34  1  0  0  0  0 
 11 35  1  0  0  0  0 
 12 13  1  0  0  0  0 
 14 18  1  0  0  0  0 
 14 36  1  0  0  0  0 
 15 21  1  0  0  0  0 
 16 19  2  0  0  0  0 
 16 37  1  0  0  0  0 
 17 25  2  0  0  0  0 
 18 20  2  0  0  0  0 
 19 20  1  0  0  0  0 
 19 38  1  0  0  0  0 
 20 39  1  0  0  0  0 
 21 28  2  0  0  0  0 
 22 23  1  0  0  0  0 
 22 24  1  0  0  0  0 
 22 40  1  0  0  0  0 
 22 41  1  0  0  0  0 
 23 42  1  0  0  0  0 
 23 43  1  0  0  0  0 
 24 26  1  0  0  0  0 
 24 44  1  0  0  0  0 
 24 45  1  0  0  0  0 
 25 27  1  0  0  0  0 
 25 47  1  0  0  0  0 
 26 30  1  0  0  0  0 
 26 48  1  0  0  0  0 
 26 49  1  0  0  0  0 
 27 29  2  0  0  0  0 
 27 50  1  0  0  0  0 
 28 31  1  0  0  0  0 
 28 51  1  0  0  0  0 
 29 52  1  0  0  0  0 
 30 53  1  0  0  0  0 
 30 54  1  0  0  0  0 
 30 55  1  0  0  0  0 
 31 32  2  0  0  0  0 
 31 56  1  0  0  0  0 
 32 57  1  0  0  0  0 
M  END
> <cdk:Title>
3390483

> <cdk:Remark>
null

> <PUBCHEM_COMPOUND_CID>
3390483

> <PUBCHEM_COMPOUND_CANONICALIZED>
1

> <PUBCHEM_CACTVS_COMPLEXITY>
707

> <PUBCHEM_CACTVS_HBOND_ACCEPTOR>
6

> <PUBCHEM_CACTVS_HBOND_DONOR>
1

> <PUBCHEM_CACTVS_ROTATABLE_BOND>
10

> <PUBCHEM_CACTVS_SUBSKEYS>
AAADceB6OAAAAAAAAAAAAAAAAAAAASJEAAAwAAAAAAAAAAAB8AAAHgAACAAADCzhmAYyBoMABkCIAqlSkAKCCAAkIAAIiAHODMgOJjqEtT+HOSjkxhGYqYe83/KuAAABAAAAAAAAAAIAAAAAAAAAAAAAAA==

> <PUBCHEM_IUPAC_OPENEYE_NAME>
3-(furan-2-carbonyl)-1-(2-furylmethyl)-4-hydroxy-2-(3-pentoxyphenyl)-2H-pyrrol-5-one

> <PUBCHEM_IUPAC_CAS_NAME>
1-(2-furanylmethyl)-3-[2-furanyl(oxo)methyl]-4-hydroxy-2-(3-pentoxyphenyl)-2H-pyrrol-5-one

> <PUBCHEM_IUPAC_NAME>
3-(furan-2-carbonyl)-1-(furan-2-ylmethyl)-4-hydroxy-2-(3-pentoxyphenyl)-2H-pyrrol-5-one

> <PUBCHEM_IUPAC_SYSTEMATIC_NAME>
3-(furan-2-ylcarbonyl)-1-(furan-2-ylmethyl)-4-oxidanyl-2-(3-pentoxyphenyl)-2H-pyrrol-5-one

> <PUBCHEM_IUPAC_TRADITIONAL_NAME>
5-(3-amoxyphenyl)-1-(2-furfuryl)-4-(2-furoyl)-3-hydroxy-3-pyrrolin-2-one

> <PUBCHEM_IUPAC_INCHI>
InChI=1S/C25H25NO6/c1-2-3-4-12-30-18-9-5-8-17(15-18)22-21(23(27)20-11-7-14-32-20)24(28)25(29)26(22)16-19-10-6-13-31-19/h5-11,13-15,22,28H,2-4,12,16H2,1H3

> <PUBCHEM_IUPAC_INCHIKEY>
JLFPGDDYKWCHOG-UHFFFAOYSA-N

> <PUBCHEM_XLOGP3_AA>
4.7

> <PUBCHEM_EXACT_MASS>
435.168188

> <PUBCHEM_MOLECULAR_FORMULA>
C25H25NO6

> <PUBCHEM_MOLECULAR_WEIGHT>
435.4691

> <PUBCHEM_OPENEYE_CAN_SMILES>
CCCCCOC1=CC=CC(=C1)C2C(=C(C(=O)N2CC3=CC=CO3)O)C(=O)C4=CC=CO4

> <PUBCHEM_OPENEYE_ISO_SMILES>
CCCCCOC1=CC=CC(=C1)C2C(=C(C(=O)N2CC3=CC=CO3)O)C(=O)C4=CC=CO4

> <PUBCHEM_CACTVS_TPSA>
93.1

> <PUBCHEM_MONOISOTOPIC_WEIGHT>
435.168188

> <PUBCHEM_TOTAL_CHARGE>
0

> <PUBCHEM_HEAVY_ATOM_COUNT>
32

> <PUBCHEM_ATOM_DEF_STEREO_COUNT>
0

> <PUBCHEM_ATOM_UDEF_STEREO_COUNT>
1

> <PUBCHEM_BOND_DEF_STEREO_COUNT>
0

> <PUBCHEM_BOND_UDEF_STEREO_COUNT>
0

> <PUBCHEM_ISOTOPIC_ATOM_COUNT>
0

> <PUBCHEM_COMPONENT_COUNT>
1

> <PUBCHEM_CACTVS_TAUTO_COUNT>
3

> <PUBCHEM_COORDINATE_TYPE>
1

> <PUBCHEM_BONDANNOTATIONS>
10  14  8

$$$$
3390483
  CDK     1110141352

 57 60  0  0  0  0  0  0  0  0999 V2000
    7.0692    4.3907    0.0000 O   0  0  0  0  0  0  0  0  0  0  0  0
    4.2493   -0.9571    0.0000 O   0  0  0  0  0  0  0  0  0  0  0  0
    4.8936    4.3907    0.0000 O   0  0  0  0  0  0  0  0  0  0  0  0
    3.5827    3.9853    0.0000 O   0  0  0  0  0  0  0  0  0  0  0  0
    7.9494    1.3435    0.0000 O   0  0  0  0  0  0  0  0  0  0  0  0
    8.3801    3.9853    0.0000 O   0  0  0  0  0  0  0  0  0  0  0  0
    5.1724    2.6307    0.0000 N   0  0  0  0  0  0  0  0  0  0  0  0
    5.9814    2.0429    0.0000 C   0  0  3  0  0  0  0  0  0  0  0  0
    6.7904    2.6307    0.0000 C   0  0  0  0  0  0  0  0  0  0  0  0
    5.9814    1.0429    0.0000 C   0  0  0  0  0  0  0  0  0  0  0  0
    4.2213    2.3216    0.0000 C   0  0  0  0  0  0  0  0  0  0  0  0
    5.4814    3.5817    0.0000 C   0  0  0  0  0  0  0  0  0  0  0  0
    6.4814    3.5817    0.0000 C   0  0  0  0  0  0  0  0  0  0  0  0
    5.1153    0.5429    0.0000 C   0  0  0  0  0  0  0  0  0  0  0  0
    7.7414    2.3216    0.0000 C   0  0  0  0  0  0  0  0  0  0  0  0
    6.8474    0.5429    0.0000 C   0  0  0  0  0  0  0  0  0  0  0  0
    3.4782    2.9908    0.0000 C   0  0  0  0  0  0  0  0  0  0  0  0
    5.1153   -0.4571    0.0000 C   0  0  0  0  0  0  0  0  0  0  0  0
    6.8474   -0.4571    0.0000 C   0  0  0  0  0  0  0  0  0  0  0  0
    5.9814   -0.9571    0.0000 C   0  0  0  0  0  0  0  0  0  0  0  0
    8.4846    2.9908    0.0000 C   0  0  0  0  0  0  0  0  0  0  0  0
    3.3833   -2.4571    0.0000 C   0  0  0  0  0  0  0  0  0  0  0  0
    4.2493   -1.9571    0.0000 C   0  0  0  0  0  0  0  0  0  0  0  0
    3.3833   -3.4571    0.0000 C   0  0  0  0  0  0  0  0  0  0  0  0
    2.5000    2.7829    0.0000 C   0  0  0  0  0  0  0  0  0  0  0  0
    2.5173   -3.9571    0.0000 C   0  0  0  0  0  0  0  0  0  0  0  0
    2.0000    3.6489    0.0000 C   0  0  0  0  0  0  0  0  0  0  0  0
    9.4627    2.7829    0.0000 C   0  0  0  0  0  0  0  0  0  0  0  0
    2.6691    4.3920    0.0000 C   0  0  0  0  0  0  0  0  0  0  0  0
    2.5173   -4.9571    0.0000 C   0  0  0  0  0  0  0  0  0  0  0  0
    9.9627    3.6489    0.0000 C   0  0  0  0  0  0  0  0  0  0  0  0
    9.2936    4.3920    0.0000 C   0  0  0  0  0  0  0  0  0  0  0  0
    6.7387    1.6570    0.0000 H   0  0  0  0  0  0  0  0  0  0  0  0
    3.7327    1.9399    0.0000 H   0  0  0  0  0  0  0  0  0  0  0  0
    4.5124    1.7742    0.0000 H   0  0  0  0  0  0  0  0  0  0  0  0
    4.5784    0.8529    0.0000 H   0  0  0  0  0  0  0  0  0  0  0  0
    7.3843    0.8529    0.0000 H   0  0  0  0  0  0  0  0  0  0  0  0
    7.3843   -0.7671    0.0000 H   0  0  0  0  0  0  0  0  0  0  0  0
    5.9814   -1.5771    0.0000 H   0  0  0  0  0  0  0  0  0  0  0  0
    3.1712   -1.8745    0.0000 H   0  0  0  0  0  0  0  0  0  0  0  0
    2.7727   -2.5648    0.0000 H   0  0  0  0  0  0  0  0  0  0  0  0
    4.4614   -2.5397    0.0000 H   0  0  0  0  0  0  0  0  0  0  0  0
    4.8599   -1.8495    0.0000 H   0  0  0  0  0  0  0  0  0  0  0  0
    3.5953   -4.0397    0.0000 H   0  0  0  0  0  0  0  0  0  0  0  0
    3.9939   -3.3495    0.0000 H   0  0  0  0  0  0  0  0  0  0  0  0
    6.8170    4.9571    0.0000 H   0  0  0  0  0  0  0  0  0  0  0  0
    2.2478    2.2165    0.0000 H   0  0  0  0  0  0  0  0  0  0  0  0
    2.3052   -3.3745    0.0000 H   0  0  0  0  0  0  0  0  0  0  0  0
    1.9067   -4.0648    0.0000 H   0  0  0  0  0  0  0  0  0  0  0  0
    1.3834    3.7137    0.0000 H   0  0  0  0  0  0  0  0  0  0  0  0
    9.7149    2.2165    0.0000 H   0  0  0  0  0  0  0  0  0  0  0  0
    2.5402    4.9985    0.0000 H   0  0  0  0  0  0  0  0  0  0  0  0
    1.8973   -4.9571    0.0000 H   0  0  0  0  0  0  0  0  0  0  0  0
    2.5173   -5.5771    0.0000 H   0  0  0  0  0  0  0  0  0  0  0  0
    3.1373   -4.9571    0.0000 H   0  0  0  0  0  0  0  0  0  0  0  0
   10.5793    3.7137    0.0000 H   0  0  0  0  0  0  0  0  0  0  0  0
    9.4225    4.9985    0.0000 H   0  0  0  0  0  0  0  0  0  0  0  0
  1 13  1  0  0  0  0 
  1 46  1  0  0  0  0 
  2 18  1  0  0  0  0 
  2 23  1  0  0  0  0 
  3 12  2  0  0  0  0 
  4 17  1  0  0  0  0 
  4 29  1  0  0  0  0 
  5 15  2  0  0  0  0 
  6 21  1  0  0  0  0 
  6 32  1  0  0  0  0 
  7  8  1  0  0  0  0 
  7 11  1  0  0  0  0 
  7 12  1  0  0  0  0 
  8  9  1  0  0  0  0 
  8 10  1  0  0  0  0 
  8 33  1  0  0  0  0 
  9 13  2  0  0  0  0 
  9 15  1  0  0  0  0 
 10 14  2  0  0  0  0 
 10 16  1  0  0  0  0 
 11 17  1  0  0  0  0 
 11 34  1  0  0  0  0 
 11 35  1  0  0  0  0 
 12 13  1  0  0  0  0 
 14 18  1  0  0  0  0 
 14 36  1  0  0  0  0 
 15 21  1  0  0  0  0 
 16 19  2  0  0  0  0 
 16 37  1  0  0  0  0 
 17 25  2  0  0  0  0 
 18 20  2  0  0  0  0 
 19 20  1  0  0  0  0 
 19 38  1  0  0  0  0 
 20 39  1  0  0  0  0 
 21 28  2  0  0  0  0 
 22 23  1  0  0  0  0 
 22 24  1  0  0  0  0 
 22 40  1  0  0  0  0 
 22 41  1  0  0  0  0 
 23 42  1  0  0  0  0 
 23 43  1  0  0  0  0 
 24 26  1  0  0  0  0 
 24 44  1  0  0  0  0 
 24 45  1  0  0  0  0 
 25 27  1  0  0  0  0 
 25 47  1  0  0  0  0 
 26 30  1  0  0  0  0 
 26 48  1  0  0  0  0 
 26 49  1  0  0  0  0 
 27 29  2  0  0  0  0 
 27 50  1  0  0  0  0 
 28 31  1  0  0  0  0 
 28 51  1  0  0  0  0 
 29 52  1  0  0  0  0 
 30 53  1  0  0  0  0 
 30 54  1  0  0  0  0 
 30 55  1  0  0  0  0 
 31 32  2  0  0  0  0 
 31 56  1  0  0  0  0 
 32 57  1  0  0  0  0 
M  END
> <cdk:Title>
3390483

> <cdk:Remark>
null

> <PUBCHEM_COMPOUND_CID>
3390483

> <PUBCHEM_COMPOUND_CANONICALIZED>
1

> <PUBCHEM_CACTVS_COMPLEXITY>
707

> <PUBCHEM_CACTVS_HBOND_ACCEPTOR>
6

> <PUBCHEM_CACTVS_HBOND_DONOR>
1

> <PUBCHEM_CACTVS_ROTATABLE_BOND>
10

> <PUBCHEM_CACTVS_SUBSKEYS>
AAADceB6OAAAAAAAAAAAAAAAAAAAASJEAAAwAAAAAAAAAAAB8AAAHgAACAAADCzhmAYyBoMABkCIAqlSkAKCCAAkIAAIiAHODMgOJjqEtT+HOSjkxhGYqYe83/KuAAABAAAAAAAAAAIAAAAAAAAAAAAAAA==

> <PUBCHEM_IUPAC_OPENEYE_NAME>
3-(furan-2-carbonyl)-1-(2-furylmethyl)-4-hydroxy-2-(3-pentoxyphenyl)-2H-pyrrol-5-one

> <PUBCHEM_IUPAC_CAS_NAME>
1-(2-furanylmethyl)-3-[2-furanyl(oxo)methyl]-4-hydroxy-2-(3-pentoxyphenyl)-2H-pyrrol-5-one

> <PUBCHEM_IUPAC_NAME>
3-(furan-2-carbonyl)-1-(furan-2-ylmethyl)-4-hydroxy-2-(3-pentoxyphenyl)-2H-pyrrol-5-one

> <PUBCHEM_IUPAC_SYSTEMATIC_NAME>
3-(furan-2-ylcarbonyl)-1-(furan-2-ylmethyl)-4-oxidanyl-2-(3-pentoxyphenyl)-2H-pyrrol-5-one

> <PUBCHEM_IUPAC_TRADITIONAL_NAME>
5-(3-amoxyphenyl)-1-(2-furfuryl)-4-(2-furoyl)-3-hydroxy-3-pyrrolin-2-one

> <PUBCHEM_IUPAC_INCHI>
InChI=1S/C25H25NO6/c1-2-3-4-12-30-18-9-5-8-17(15-18)22-21(23(27)20-11-7-14-32-20)24(28)25(29)26(22)16-19-10-6-13-31-19/h5-11,13-15,22,28H,2-4,12,16H2,1H3

> <PUBCHEM_IUPAC_INCHIKEY>
JLFPGDDYKWCHOG-UHFFFAOYSA-N

> <PUBCHEM_XLOGP3_AA>
4.7

> <PUBCHEM_EXACT_MASS>
435.168188

> <PUBCHEM_MOLECULAR_FORMULA>
C25H25NO6

> <PUBCHEM_MOLECULAR_WEIGHT>
435.4691

> <PUBCHEM_OPENEYE_CAN_SMILES>
CCCCCOC1=CC=CC(=C1)C2C(=C(C(=O)N2CC3=CC=CO3)O)C(=O)C4=CC=CO4

> <PUBCHEM_OPENEYE_ISO_SMILES>
CCCCCOC1=CC=CC(=C1)C2C(=C(C(=O)N2CC3=CC=CO3)O)C(=O)C4=CC=CO4

> <PUBCHEM_CACTVS_TPSA>
93.1

> <PUBCHEM_MONOISOTOPIC_WEIGHT>
435.168188

> <PUBCHEM_TOTAL_CHARGE>
0

> <PUBCHEM_HEAVY_ATOM_COUNT>
32

> <PUBCHEM_ATOM_DEF_STEREO_COUNT>
0

> <PUBCHEM_ATOM_UDEF_STEREO_COUNT>
1

> <PUBCHEM_BOND_DEF_STEREO_COUNT>
0

> <PUBCHEM_BOND_UDEF_STEREO_COUNT>
0

> <PUBCHEM_ISOTOPIC_ATOM_COUNT>
0

> <PUBCHEM_COMPONENT_COUNT>
1

> <PUBCHEM_CACTVS_TAUTO_COUNT>
3

> <PUBCHEM_COORDINATE_TYPE>
1

> <PUBCHEM_BONDANNOTATIONS>
10  14  8

$$$$
3390483
  CDK     1110141358

 57 60  0  0  0  0  0  0  0  0999 V2000
    7.0692    4.3907    0.0000 O   0  0  0  0  0  0  0  0  0  0  0  0
    4.2493   -0.9571    0.0000 O   0  0  0  0  0  0  0  0  0  0  0  0
    4.8936    4.3907    0.0000 O   0  0  0  0  0  0  0  0  0  0  0  0
    3.5827    3.9853    0.0000 O   0  0  0  0  0  0  0  0  0  0  0  0
    7.9494    1.3435    0.0000 O   0  0  0  0  0  0  0  0  0  0  0  0
    8.3801    3.9853    0.0000 O   0  0  0  0  0  0  0  0  0  0  0  0
    5.1724    2.6307    0.0000 N   0  0  0  0  0  0  0  0  0  0  0  0
    5.9814    2.0429    0.0000 C   0  0  3  0  0  0  0  0  0  0  0  0
    6.7904    2.6307    0.0000 C   0  0  0  0  0  0  0  0  0  0  0  0
    5.9814    1.0429    0.0000 C   0  0  0  0  0  0  0  0  0  0  0  0
    4.2213    2.3216    0.0000 C   0  0  0  0  0  0  0  0  0  0  0  0
    5.4814    3.5817    0.0000 C   0  0  0  0  0  0  0  0  0  0  0  0
    6.4814    3.5817    0.0000 C   0  0  0  0  0  0  0  0  0  0  0  0
    5.1153    0.5429    0.0000 C   0  0  0  0  0  0  0  0  0  0  0  0
    7.7414    2.3216    0.0000 C   0  0  0  0  0  0  0  0  0  0  0  0
    6.8474    0.5429    0.0000 C   0  0  0  0  0  0  0  0  0  0  0  0
    3.4782    2.9908    0.0000 C   0  0  0  0  0  0  0  0  0  0  0  0
    5.1153   -0.4571    0.0000 C   0  0  0  0  0  0  0  0  0  0  0  0
    6.8474   -0.4571    0.0000 C   0  0  0  0  0  0  0  0  0  0  0  0
    5.9814   -0.9571    0.0000 C   0  0  0  0  0  0  0  0  0  0  0  0
    8.4846    2.9908    0.0000 C   0  0  0  0  0  0  0  0  0  0  0  0
    3.3833   -2.4571    0.0000 C   0  0  0  0  0  0  0  0  0  0  0  0
    4.2493   -1.9571    0.0000 C   0  0  0  0  0  0  0  0  0  0  0  0
    3.3833   -3.4571    0.0000 C   0  0  0  0  0  0  0  0  0  0  0  0
    2.5000    2.7829    0.0000 C   0  0  0  0  0  0  0  0  0  0  0  0
    2.5173   -3.9571    0.0000 C   0  0  0  0  0  0  0  0  0  0  0  0
    2.0000    3.6489    0.0000 C   0  0  0  0  0  0  0  0  0  0  0  0
    9.4627    2.7829    0.0000 C   0  0  0  0  0  0  0  0  0  0  0  0
    2.6691    4.3920    0.0000 C   0  0  0  0  0  0  0  0  0  0  0  0
    2.5173   -4.9571    0.0000 C   0  0  0  0  0  0  0  0  0  0  0  0
    9.9627    3.6489    0.0000 C   0  0  0  0  0  0  0  0  0  0  0  0
    9.2936    4.3920    0.0000 C   0  0  0  0  0  0  0  0  0  0  0  0
    6.7387    1.6570    0.0000 H   0  0  0  0  0  0  0  0  0  0  0  0
    3.7327    1.9399    0.0000 H   0  0  0  0  0  0  0  0  0  0  0  0
    4.5124    1.7742    0.0000 H   0  0  0  0  0  0  0  0  0  0  0  0
    4.5784    0.8529    0.0000 H   0  0  0  0  0  0  0  0  0  0  0  0
    7.3843    0.8529    0.0000 H   0  0  0  0  0  0  0  0  0  0  0  0
    7.3843   -0.7671    0.0000 H   0  0  0  0  0  0  0  0  0  0  0  0
    5.9814   -1.5771    0.0000 H   0  0  0  0  0  0  0  0  0  0  0  0
    3.1712   -1.8745    0.0000 H   0  0  0  0  0  0  0  0  0  0  0  0
    2.7727   -2.5648    0.0000 H   0  0  0  0  0  0  0  0  0  0  0  0
    4.4614   -2.5397    0.0000 H   0  0  0  0  0  0  0  0  0  0  0  0
    4.8599   -1.8495    0.0000 H   0  0  0  0  0  0  0  0  0  0  0  0
    3.5953   -4.0397    0.0000 H   0  0  0  0  0  0  0  0  0  0  0  0
    3.9939   -3.3495    0.0000 H   0  0  0  0  0  0  0  0  0  0  0  0
    6.8170    4.9571    0.0000 H   0  0  0  0  0  0  0  0  0  0  0  0
    2.2478    2.2165    0.0000 H   0  0  0  0  0  0  0  0  0  0  0  0
    2.3052   -3.3745    0.0000 H   0  0  0  0  0  0  0  0  0  0  0  0
    1.9067   -4.0648    0.0000 H   0  0  0  0  0  0  0  0  0  0  0  0
    1.3834    3.7137    0.0000 H   0  0  0  0  0  0  0  0  0  0  0  0
    9.7149    2.2165    0.0000 H   0  0  0  0  0  0  0  0  0  0  0  0
    2.5402    4.9985    0.0000 H   0  0  0  0  0  0  0  0  0  0  0  0
    1.8973   -4.9571    0.0000 H   0  0  0  0  0  0  0  0  0  0  0  0
    2.5173   -5.5771    0.0000 H   0  0  0  0  0  0  0  0  0  0  0  0
    3.1373   -4.9571    0.0000 H   0  0  0  0  0  0  0  0  0  0  0  0
   10.5793    3.7137    0.0000 H   0  0  0  0  0  0  0  0  0  0  0  0
    9.4225    4.9985    0.0000 H   0  0  0  0  0  0  0  0  0  0  0  0
  1 13  1  0  0  0  0 
  1 46  1  0  0  0  0 
  2 18  1  0  0  0  0 
  2 23  1  0  0  0  0 
  3 12  2  0  0  0  0 
  4 17  1  0  0  0  0 
  4 29  1  0  0  0  0 
  5 15  2  0  0  0  0 
  6 21  1  0  0  0  0 
  6 32  1  0  0  0  0 
  7  8  1  0  0  0  0 
  7 11  1  0  0  0  0 
  7 12  1  0  0  0  0 
  8  9  1  0  0  0  0 
  8 10  1  0  0  0  0 
  8 33  1  0  0  0  0 
  9 13  2  0  0  0  0 
  9 15  1  0  0  0  0 
 10 14  2  0  0  0  0 
 10 16  1  0  0  0  0 
 11 17  1  0  0  0  0 
 11 34  1  0  0  0  0 
 11 35  1  0  0  0  0 
 12 13  1  0  0  0  0 
 14 18  1  0  0  0  0 
 14 36  1  0  0  0  0 
 15 21  1  0  0  0  0 
 16 19  2  0  0  0  0 
 16 37  1  0  0  0  0 
 17 25  2  0  0  0  0 
 18 20  2  0  0  0  0 
 19 20  1  0  0  0  0 
 19 38  1  0  0  0  0 
 20 39  1  0  0  0  0 
 21 28  2  0  0  0  0 
 22 23  1  0  0  0  0 
 22 24  1  0  0  0  0 
 22 40  1  0  0  0  0 
 22 41  1  0  0  0  0 
 23 42  1  0  0  0  0 
 23 43  1  0  0  0  0 
 24 26  1  0  0  0  0 
 24 44  1  0  0  0  0 
 24 45  1  0  0  0  0 
 25 27  1  0  0  0  0 
 25 47  1  0  0  0  0 
 26 30  1  0  0  0  0 
 26 48  1  0  0  0  0 
 26 49  1  0  0  0  0 
 27 29  2  0  0  0  0 
 27 50  1  0  0  0  0 
 28 31  1  0  0  0  0 
 28 51  1  0  0  0  0 
 29 52  1  0  0  0  0 
 30 53  1  0  0  0  0 
 30 54  1  0  0  0  0 
 30 55  1  0  0  0  0 
 31 32  2  0  0  0  0 
 31 56  1  0  0  0  0 
 32 57  1  0  0  0  0 
M  END
> <cdk:Title>
3390483

> <cdk:Remark>
null

> <PUBCHEM_COMPOUND_CID>
3390483

> <PUBCHEM_COMPOUND_CANONICALIZED>
1

> <PUBCHEM_CACTVS_COMPLEXITY>
707

> <PUBCHEM_CACTVS_HBOND_ACCEPTOR>
6

> <PUBCHEM_CACTVS_HBOND_DONOR>
1

> <PUBCHEM_CACTVS_ROTATABLE_BOND>
10

> <PUBCHEM_CACTVS_SUBSKEYS>
AAADceB6OAAAAAAAAAAAAAAAAAAAASJEAAAwAAAAAAAAAAAB8AAAHgAACAAADCzhmAYyBoMABkCIAqlSkAKCCAAkIAAIiAHODMgOJjqEtT+HOSjkxhGYqYe83/KuAAABAAAAAAAAAAIAAAAAAAAAAAAAAA==

> <PUBCHEM_IUPAC_OPENEYE_NAME>
3-(furan-2-carbonyl)-1-(2-furylmethyl)-4-hydroxy-2-(3-pentoxyphenyl)-2H-pyrrol-5-one

> <PUBCHEM_IUPAC_CAS_NAME>
1-(2-furanylmethyl)-3-[2-furanyl(oxo)methyl]-4-hydroxy-2-(3-pentoxyphenyl)-2H-pyrrol-5-one

> <PUBCHEM_IUPAC_NAME>
3-(furan-2-carbonyl)-1-(furan-2-ylmethyl)-4-hydroxy-2-(3-pentoxyphenyl)-2H-pyrrol-5-one

> <PUBCHEM_IUPAC_SYSTEMATIC_NAME>
3-(furan-2-ylcarbonyl)-1-(furan-2-ylmethyl)-4-oxidanyl-2-(3-pentoxyphenyl)-2H-pyrrol-5-one

> <PUBCHEM_IUPAC_TRADITIONAL_NAME>
5-(3-amoxyphenyl)-1-(2-furfuryl)-4-(2-furoyl)-3-hydroxy-3-pyrrolin-2-one

> <PUBCHEM_IUPAC_INCHI>
InChI=1S/C25H25NO6/c1-2-3-4-12-30-18-9-5-8-17(15-18)22-21(23(27)20-11-7-14-32-20)24(28)25(29)26(22)16-19-10-6-13-31-19/h5-11,13-15,22,28H,2-4,12,16H2,1H3

> <PUBCHEM_IUPAC_INCHIKEY>
JLFPGDDYKWCHOG-UHFFFAOYSA-N

> <PUBCHEM_XLOGP3_AA>
4.7

> <PUBCHEM_EXACT_MASS>
435.168188

> <PUBCHEM_MOLECULAR_FORMULA>
C25H25NO6

> <PUBCHEM_MOLECULAR_WEIGHT>
435.4691

> <PUBCHEM_OPENEYE_CAN_SMILES>
CCCCCOC1=CC=CC(=C1)C2C(=C(C(=O)N2CC3=CC=CO3)O)C(=O)C4=CC=CO4

> <PUBCHEM_OPENEYE_ISO_SMILES>
CCCCCOC1=CC=CC(=C1)C2C(=C(C(=O)N2CC3=CC=CO3)O)C(=O)C4=CC=CO4

> <PUBCHEM_CACTVS_TPSA>
93.1

> <PUBCHEM_MONOISOTOPIC_WEIGHT>
435.168188

> <PUBCHEM_TOTAL_CHARGE>
0

> <PUBCHEM_HEAVY_ATOM_COUNT>
32

> <PUBCHEM_ATOM_DEF_STEREO_COUNT>
0

> <PUBCHEM_ATOM_UDEF_STEREO_COUNT>
1

> <PUBCHEM_BOND_DEF_STEREO_COUNT>
0

> <PUBCHEM_BOND_UDEF_STEREO_COUNT>
0

> <PUBCHEM_ISOTOPIC_ATOM_COUNT>
0

> <PUBCHEM_COMPONENT_COUNT>
1

> <PUBCHEM_CACTVS_TAUTO_COUNT>
3

> <PUBCHEM_COORDINATE_TYPE>
1

> <PUBCHEM_BONDANNOTATIONS>
10  14  8

$$$$
