33958512
  CDK     1110140953

 48 49  0  0  0  0  0  0  0  0999 V2000
    7.1962    2.5000    0.0000 S   0  0  0  0  0  0  0  0  0  0  0  0
    7.1962    6.5000    0.0000 F   0  0  0  0  0  0  0  0  0  0  0  0
    8.1962    2.5000    0.0000 O   0  0  0  0  0  0  0  0  0  0  0  0
    6.1962    2.5000    0.0000 O   0  0  0  0  0  0  0  0  0  0  0  0
    6.3301   -2.0000    0.0000 O   0  0  0  0  0  0  0  0  0  0  0  0
    2.8660   -3.0000    0.0000 O   0  0  0  0  0  0  0  0  0  0  0  0
    4.5981   -6.0000    0.0000 O   0  0  0  0  0  0  0  0  0  0  0  0
    7.1962    1.5000    0.0000 N   0  0  0  0  0  0  0  0  0  0  0  0
    4.5981   -2.0000    0.0000 N   0  0  0  0  0  0  0  0  0  0  0  0
    6.3301    0.0000    0.0000 C   0  0  0  0  0  0  0  0  0  0  0  0
    6.3301    1.0000    0.0000 C   0  0  0  0  0  0  0  0  0  0  0  0
    5.4641   -0.5000    0.0000 C   0  0  0  0  0  0  0  0  0  0  0  0
    5.4641   -1.5000    0.0000 C   0  0  0  0  0  0  0  0  0  0  0  0
    7.1962    3.5000    0.0000 C   0  0  0  0  0  0  0  0  0  0  0  0
    4.5981   -3.0000    0.0000 C   0  0  0  0  0  0  0  0  0  0  0  0
    8.0622    4.0000    0.0000 C   0  0  0  0  0  0  0  0  0  0  0  0
    6.3301    4.0000    0.0000 C   0  0  0  0  0  0  0  0  0  0  0  0
    3.7321   -3.5000    0.0000 C   0  0  0  0  0  0  0  0  0  0  0  0
    5.4641   -3.5000    0.0000 C   0  0  0  0  0  0  0  0  0  0  0  0
    8.0622    5.0000    0.0000 C   0  0  0  0  0  0  0  0  0  0  0  0
    6.3301    5.0000    0.0000 C   0  0  0  0  0  0  0  0  0  0  0  0
    3.7321   -4.5000    0.0000 C   0  0  0  0  0  0  0  0  0  0  0  0
    4.5981   -5.0000    0.0000 C   0  0  0  0  0  0  0  0  0  0  0  0
    5.4641   -4.5000    0.0000 C   0  0  0  0  0  0  0  0  0  0  0  0
    7.1962    5.5000    0.0000 C   0  0  0  0  0  0  0  0  0  0  0  0
    2.0000   -3.5000    0.0000 C   0  0  0  0  0  0  0  0  0  0  0  0
    5.4641   -6.5000    0.0000 C   0  0  0  0  0  0  0  0  0  0  0  0
    6.5422   -0.5826    0.0000 H   0  0  0  0  0  0  0  0  0  0  0  0
    6.9407    0.1077    0.0000 H   0  0  0  0  0  0  0  0  0  0  0  0
    6.1181    1.5826    0.0000 H   0  0  0  0  0  0  0  0  0  0  0  0
    5.7196    0.8923    0.0000 H   0  0  0  0  0  0  0  0  0  0  0  0
    5.2521    0.0826    0.0000 H   0  0  0  0  0  0  0  0  0  0  0  0
    4.8535   -0.6077    0.0000 H   0  0  0  0  0  0  0  0  0  0  0  0
    7.7331    1.1900    0.0000 H   0  0  0  0  0  0  0  0  0  0  0  0
    4.0611   -1.6900    0.0000 H   0  0  0  0  0  0  0  0  0  0  0  0
    8.5991    3.6900    0.0000 H   0  0  0  0  0  0  0  0  0  0  0  0
    5.7932    3.6900    0.0000 H   0  0  0  0  0  0  0  0  0  0  0  0
    6.0010   -3.1900    0.0000 H   0  0  0  0  0  0  0  0  0  0  0  0
    8.5991    5.3100    0.0000 H   0  0  0  0  0  0  0  0  0  0  0  0
    5.7932    5.3100    0.0000 H   0  0  0  0  0  0  0  0  0  0  0  0
    3.1951   -4.8100    0.0000 H   0  0  0  0  0  0  0  0  0  0  0  0
    6.0010   -4.8100    0.0000 H   0  0  0  0  0  0  0  0  0  0  0  0
    1.6900   -2.9631    0.0000 H   0  0  0  0  0  0  0  0  0  0  0  0
    1.4631   -3.8100    0.0000 H   0  0  0  0  0  0  0  0  0  0  0  0
    2.3100   -4.0369    0.0000 H   0  0  0  0  0  0  0  0  0  0  0  0
    5.1541   -7.0369    0.0000 H   0  0  0  0  0  0  0  0  0  0  0  0
    6.0010   -6.8100    0.0000 H   0  0  0  0  0  0  0  0  0  0  0  0
    5.7741   -5.9631    0.0000 H   0  0  0  0  0  0  0  0  0  0  0  0
  1  3  2  0  0  0  0 
  1  4  2  0  0  0  0 
  1  8  1  0  0  0  0 
  1 14  1  0  0  0  0 
  2 25  1  0  0  0  0 
  5 13  2  0  0  0  0 
  6 18  1  0  0  0  0 
  6 26  1  0  0  0  0 
  7 23  1  0  0  0  0 
  7 27  1  0  0  0  0 
  8 11  1  0  0  0  0 
  8 34  1  0  0  0  0 
  9 13  1  0  0  0  0 
  9 15  1  0  0  0  0 
  9 35  1  0  0  0  0 
 10 11  1  0  0  0  0 
 10 12  1  0  0  0  0 
 10 28  1  0  0  0  0 
 10 29  1  0  0  0  0 
 11 30  1  0  0  0  0 
 11 31  1  0  0  0  0 
 12 13  1  0  0  0  0 
 12 32  1  0  0  0  0 
 12 33  1  0  0  0  0 
 14 16  2  0  0  0  0 
 14 17  1  0  0  0  0 
 15 18  2  0  0  0  0 
 15 19  1  0  0  0  0 
 16 20  1  0  0  0  0 
 16 36  1  0  0  0  0 
 17 21  2  0  0  0  0 
 17 37  1  0  0  0  0 
 18 22  1  0  0  0  0 
 19 24  2  0  0  0  0 
 19 38  1  0  0  0  0 
 20 25  2  0  0  0  0 
 20 39  1  0  0  0  0 
 21 25  1  0  0  0  0 
 21 40  1  0  0  0  0 
 22 23  2  0  0  0  0 
 22 41  1  0  0  0  0 
 23 24  1  0  0  0  0 
 24 42  1  0  0  0  0 
 26 43  1  0  0  0  0 
 26 44  1  0  0  0  0 
 26 45  1  0  0  0  0 
 27 46  1  0  0  0  0 
 27 47  1  0  0  0  0 
 27 48  1  0  0  0  0 
M  END
> <cdk:Title>
33958512

> <cdk:Remark>
null

> <PUBCHEM_COMPOUND_CID>
33958512

> <PUBCHEM_COMPOUND_CANONICALIZED>
1

> <PUBCHEM_CACTVS_COMPLEXITY>
561

> <PUBCHEM_CACTVS_HBOND_ACCEPTOR>
7

> <PUBCHEM_CACTVS_HBOND_DONOR>
2

> <PUBCHEM_CACTVS_ROTATABLE_BOND>
9

> <PUBCHEM_CACTVS_SUBSKEYS>
AAADceB7OQBAAAAAAAAAAAAAAAAAAAAAAAAwYAAAAAAAAAABQAAAHwQQQAAACAzB0A4yx4LABAKIACVSUHDCCBAhIgAIiJkHbIgOJzLEsZuFMChl1BXY6Ae0YAwAAEAACAAAEAAAgAAQAAAgAAAAAAAAAA==

> <PUBCHEM_IUPAC_OPENEYE_NAME>
N-(2,4-dimethoxyphenyl)-4-[(4-fluorophenyl)sulfonylamino]butanamide

> <PUBCHEM_IUPAC_CAS_NAME>
N-(2,4-dimethoxyphenyl)-4-[(4-fluorophenyl)sulfonylamino]butanamide

> <PUBCHEM_IUPAC_NAME>
N-(2,4-dimethoxyphenyl)-4-[(4-fluorophenyl)sulfonylamino]butanamide

> <PUBCHEM_IUPAC_SYSTEMATIC_NAME>
N-(2,4-dimethoxyphenyl)-4-[(4-fluorophenyl)sulfonylamino]butanamide

> <PUBCHEM_IUPAC_TRADITIONAL_NAME>
N-(2,4-dimethoxyphenyl)-4-[(4-fluorophenyl)sulfonylamino]butyramide

> <PUBCHEM_IUPAC_INCHI>
InChI=1S/C18H21FN2O5S/c1-25-14-7-10-16(17(12-14)26-2)21-18(22)4-3-11-20-27(23,24)15-8-5-13(19)6-9-15/h5-10,12,20H,3-4,11H2,1-2H3,(H,21,22)

> <PUBCHEM_IUPAC_INCHIKEY>
LMBDEOBQCXXNIA-UHFFFAOYSA-N

> <PUBCHEM_XLOGP3_AA>
2.1

> <PUBCHEM_EXACT_MASS>
396.115521

> <PUBCHEM_MOLECULAR_FORMULA>
C18H21FN2O5S

> <PUBCHEM_MOLECULAR_WEIGHT>
396.433143

> <PUBCHEM_OPENEYE_CAN_SMILES>
COC1=CC(=C(C=C1)NC(=O)CCCNS(=O)(=O)C2=CC=C(C=C2)F)OC

> <PUBCHEM_OPENEYE_ISO_SMILES>
COC1=CC(=C(C=C1)NC(=O)CCCNS(=O)(=O)C2=CC=C(C=C2)F)OC

> <PUBCHEM_CACTVS_TPSA>
102

> <PUBCHEM_MONOISOTOPIC_WEIGHT>
396.115521

> <PUBCHEM_TOTAL_CHARGE>
0

> <PUBCHEM_HEAVY_ATOM_COUNT>
27

> <PUBCHEM_ATOM_DEF_STEREO_COUNT>
0

> <PUBCHEM_ATOM_UDEF_STEREO_COUNT>
0

> <PUBCHEM_BOND_DEF_STEREO_COUNT>
0

> <PUBCHEM_BOND_UDEF_STEREO_COUNT>
0

> <PUBCHEM_ISOTOPIC_ATOM_COUNT>
0

> <PUBCHEM_COMPONENT_COUNT>
1

> <PUBCHEM_CACTVS_TAUTO_COUNT>
2

> <PUBCHEM_COORDINATE_TYPE>
1

> <PUBCHEM_BONDANNOTATIONS>
14  16  8

$$$$
33958512
  CDK     1110141344

 48 49  0  0  0  0  0  0  0  0999 V2000
    7.1962    2.5000    0.0000 S   0  0  0  0  0  0  0  0  0  0  0  0
    7.1962    6.5000    0.0000 F   0  0  0  0  0  0  0  0  0  0  0  0
    8.1962    2.5000    0.0000 O   0  0  0  0  0  0  0  0  0  0  0  0
    6.1962    2.5000    0.0000 O   0  0  0  0  0  0  0  0  0  0  0  0
    6.3301   -2.0000    0.0000 O   0  0  0  0  0  0  0  0  0  0  0  0
    2.8660   -3.0000    0.0000 O   0  0  0  0  0  0  0  0  0  0  0  0
    4.5981   -6.0000    0.0000 O   0  0  0  0  0  0  0  0  0  0  0  0
    7.1962    1.5000    0.0000 N   0  0  0  0  0  0  0  0  0  0  0  0
    4.5981   -2.0000    0.0000 N   0  0  0  0  0  0  0  0  0  0  0  0
    6.3301    0.0000    0.0000 C   0  0  0  0  0  0  0  0  0  0  0  0
    6.3301    1.0000    0.0000 C   0  0  0  0  0  0  0  0  0  0  0  0
    5.4641   -0.5000    0.0000 C   0  0  0  0  0  0  0  0  0  0  0  0
    5.4641   -1.5000    0.0000 C   0  0  0  0  0  0  0  0  0  0  0  0
    7.1962    3.5000    0.0000 C   0  0  0  0  0  0  0  0  0  0  0  0
    4.5981   -3.0000    0.0000 C   0  0  0  0  0  0  0  0  0  0  0  0
    8.0622    4.0000    0.0000 C   0  0  0  0  0  0  0  0  0  0  0  0
    6.3301    4.0000    0.0000 C   0  0  0  0  0  0  0  0  0  0  0  0
    3.7321   -3.5000    0.0000 C   0  0  0  0  0  0  0  0  0  0  0  0
    5.4641   -3.5000    0.0000 C   0  0  0  0  0  0  0  0  0  0  0  0
    8.0622    5.0000    0.0000 C   0  0  0  0  0  0  0  0  0  0  0  0
    6.3301    5.0000    0.0000 C   0  0  0  0  0  0  0  0  0  0  0  0
    3.7321   -4.5000    0.0000 C   0  0  0  0  0  0  0  0  0  0  0  0
    4.5981   -5.0000    0.0000 C   0  0  0  0  0  0  0  0  0  0  0  0
    5.4641   -4.5000    0.0000 C   0  0  0  0  0  0  0  0  0  0  0  0
    7.1962    5.5000    0.0000 C   0  0  0  0  0  0  0  0  0  0  0  0
    2.0000   -3.5000    0.0000 C   0  0  0  0  0  0  0  0  0  0  0  0
    5.4641   -6.5000    0.0000 C   0  0  0  0  0  0  0  0  0  0  0  0
    6.5422   -0.5826    0.0000 H   0  0  0  0  0  0  0  0  0  0  0  0
    6.9407    0.1077    0.0000 H   0  0  0  0  0  0  0  0  0  0  0  0
    6.1181    1.5826    0.0000 H   0  0  0  0  0  0  0  0  0  0  0  0
    5.7196    0.8923    0.0000 H   0  0  0  0  0  0  0  0  0  0  0  0
    5.2521    0.0826    0.0000 H   0  0  0  0  0  0  0  0  0  0  0  0
    4.8535   -0.6077    0.0000 H   0  0  0  0  0  0  0  0  0  0  0  0
    7.7331    1.1900    0.0000 H   0  0  0  0  0  0  0  0  0  0  0  0
    4.0611   -1.6900    0.0000 H   0  0  0  0  0  0  0  0  0  0  0  0
    8.5991    3.6900    0.0000 H   0  0  0  0  0  0  0  0  0  0  0  0
    5.7932    3.6900    0.0000 H   0  0  0  0  0  0  0  0  0  0  0  0
    6.0010   -3.1900    0.0000 H   0  0  0  0  0  0  0  0  0  0  0  0
    8.5991    5.3100    0.0000 H   0  0  0  0  0  0  0  0  0  0  0  0
    5.7932    5.3100    0.0000 H   0  0  0  0  0  0  0  0  0  0  0  0
    3.1951   -4.8100    0.0000 H   0  0  0  0  0  0  0  0  0  0  0  0
    6.0010   -4.8100    0.0000 H   0  0  0  0  0  0  0  0  0  0  0  0
    1.6900   -2.9631    0.0000 H   0  0  0  0  0  0  0  0  0  0  0  0
    1.4631   -3.8100    0.0000 H   0  0  0  0  0  0  0  0  0  0  0  0
    2.3100   -4.0369    0.0000 H   0  0  0  0  0  0  0  0  0  0  0  0
    5.1541   -7.0369    0.0000 H   0  0  0  0  0  0  0  0  0  0  0  0
    6.0010   -6.8100    0.0000 H   0  0  0  0  0  0  0  0  0  0  0  0
    5.7741   -5.9631    0.0000 H   0  0  0  0  0  0  0  0  0  0  0  0
  1  3  2  0  0  0  0 
  1  4  2  0  0  0  0 
  1  8  1  0  0  0  0 
  1 14  1  0  0  0  0 
  2 25  1  0  0  0  0 
  5 13  2  0  0  0  0 
  6 18  1  0  0  0  0 
  6 26  1  0  0  0  0 
  7 23  1  0  0  0  0 
  7 27  1  0  0  0  0 
  8 11  1  0  0  0  0 
  8 34  1  0  0  0  0 
  9 13  1  0  0  0  0 
  9 15  1  0  0  0  0 
  9 35  1  0  0  0  0 
 10 11  1  0  0  0  0 
 10 12  1  0  0  0  0 
 10 28  1  0  0  0  0 
 10 29  1  0  0  0  0 
 11 30  1  0  0  0  0 
 11 31  1  0  0  0  0 
 12 13  1  0  0  0  0 
 12 32  1  0  0  0  0 
 12 33  1  0  0  0  0 
 14 16  2  0  0  0  0 
 14 17  1  0  0  0  0 
 15 18  2  0  0  0  0 
 15 19  1  0  0  0  0 
 16 20  1  0  0  0  0 
 16 36  1  0  0  0  0 
 17 21  2  0  0  0  0 
 17 37  1  0  0  0  0 
 18 22  1  0  0  0  0 
 19 24  2  0  0  0  0 
 19 38  1  0  0  0  0 
 20 25  2  0  0  0  0 
 20 39  1  0  0  0  0 
 21 25  1  0  0  0  0 
 21 40  1  0  0  0  0 
 22 23  2  0  0  0  0 
 22 41  1  0  0  0  0 
 23 24  1  0  0  0  0 
 24 42  1  0  0  0  0 
 26 43  1  0  0  0  0 
 26 44  1  0  0  0  0 
 26 45  1  0  0  0  0 
 27 46  1  0  0  0  0 
 27 47  1  0  0  0  0 
 27 48  1  0  0  0  0 
M  END
> <cdk:Title>
33958512

> <cdk:Remark>
null

> <PUBCHEM_COMPOUND_CID>
33958512

> <PUBCHEM_COMPOUND_CANONICALIZED>
1

> <PUBCHEM_CACTVS_COMPLEXITY>
561

> <PUBCHEM_CACTVS_HBOND_ACCEPTOR>
7

> <PUBCHEM_CACTVS_HBOND_DONOR>
2

> <PUBCHEM_CACTVS_ROTATABLE_BOND>
9

> <PUBCHEM_CACTVS_SUBSKEYS>
AAADceB7OQBAAAAAAAAAAAAAAAAAAAAAAAAwYAAAAAAAAAABQAAAHwQQQAAACAzB0A4yx4LABAKIACVSUHDCCBAhIgAIiJkHbIgOJzLEsZuFMChl1BXY6Ae0YAwAAEAACAAAEAAAgAAQAAAgAAAAAAAAAA==

> <PUBCHEM_IUPAC_OPENEYE_NAME>
N-(2,4-dimethoxyphenyl)-4-[(4-fluorophenyl)sulfonylamino]butanamide

> <PUBCHEM_IUPAC_CAS_NAME>
N-(2,4-dimethoxyphenyl)-4-[(4-fluorophenyl)sulfonylamino]butanamide

> <PUBCHEM_IUPAC_NAME>
N-(2,4-dimethoxyphenyl)-4-[(4-fluorophenyl)sulfonylamino]butanamide

> <PUBCHEM_IUPAC_SYSTEMATIC_NAME>
N-(2,4-dimethoxyphenyl)-4-[(4-fluorophenyl)sulfonylamino]butanamide

> <PUBCHEM_IUPAC_TRADITIONAL_NAME>
N-(2,4-dimethoxyphenyl)-4-[(4-fluorophenyl)sulfonylamino]butyramide

> <PUBCHEM_IUPAC_INCHI>
InChI=1S/C18H21FN2O5S/c1-25-14-7-10-16(17(12-14)26-2)21-18(22)4-3-11-20-27(23,24)15-8-5-13(19)6-9-15/h5-10,12,20H,3-4,11H2,1-2H3,(H,21,22)

> <PUBCHEM_IUPAC_INCHIKEY>
LMBDEOBQCXXNIA-UHFFFAOYSA-N

> <PUBCHEM_XLOGP3_AA>
2.1

> <PUBCHEM_EXACT_MASS>
396.115521

> <PUBCHEM_MOLECULAR_FORMULA>
C18H21FN2O5S

> <PUBCHEM_MOLECULAR_WEIGHT>
396.433143

> <PUBCHEM_OPENEYE_CAN_SMILES>
COC1=CC(=C(C=C1)NC(=O)CCCNS(=O)(=O)C2=CC=C(C=C2)F)OC

> <PUBCHEM_OPENEYE_ISO_SMILES>
COC1=CC(=C(C=C1)NC(=O)CCCNS(=O)(=O)C2=CC=C(C=C2)F)OC

> <PUBCHEM_CACTVS_TPSA>
102

> <PUBCHEM_MONOISOTOPIC_WEIGHT>
396.115521

> <PUBCHEM_TOTAL_CHARGE>
0

> <PUBCHEM_HEAVY_ATOM_COUNT>
27

> <PUBCHEM_ATOM_DEF_STEREO_COUNT>
0

> <PUBCHEM_ATOM_UDEF_STEREO_COUNT>
0

> <PUBCHEM_BOND_DEF_STEREO_COUNT>
0

> <PUBCHEM_BOND_UDEF_STEREO_COUNT>
0

> <PUBCHEM_ISOTOPIC_ATOM_COUNT>
0

> <PUBCHEM_COMPONENT_COUNT>
1

> <PUBCHEM_CACTVS_TAUTO_COUNT>
2

> <PUBCHEM_COORDINATE_TYPE>
1

> <PUBCHEM_BONDANNOTATIONS>
14  16  8

$$$$
33958512
  CDK     1110141346

 48 49  0  0  0  0  0  0  0  0999 V2000
    7.1962    2.5000    0.0000 S   0  0  0  0  0  0  0  0  0  0  0  0
    7.1962    6.5000    0.0000 F   0  0  0  0  0  0  0  0  0  0  0  0
    8.1962    2.5000    0.0000 O   0  0  0  0  0  0  0  0  0  0  0  0
    6.1962    2.5000    0.0000 O   0  0  0  0  0  0  0  0  0  0  0  0
    6.3301   -2.0000    0.0000 O   0  0  0  0  0  0  0  0  0  0  0  0
    2.8660   -3.0000    0.0000 O   0  0  0  0  0  0  0  0  0  0  0  0
    4.5981   -6.0000    0.0000 O   0  0  0  0  0  0  0  0  0  0  0  0
    7.1962    1.5000    0.0000 N   0  0  0  0  0  0  0  0  0  0  0  0
    4.5981   -2.0000    0.0000 N   0  0  0  0  0  0  0  0  0  0  0  0
    6.3301    0.0000    0.0000 C   0  0  0  0  0  0  0  0  0  0  0  0
    6.3301    1.0000    0.0000 C   0  0  0  0  0  0  0  0  0  0  0  0
    5.4641   -0.5000    0.0000 C   0  0  0  0  0  0  0  0  0  0  0  0
    5.4641   -1.5000    0.0000 C   0  0  0  0  0  0  0  0  0  0  0  0
    7.1962    3.5000    0.0000 C   0  0  0  0  0  0  0  0  0  0  0  0
    4.5981   -3.0000    0.0000 C   0  0  0  0  0  0  0  0  0  0  0  0
    8.0622    4.0000    0.0000 C   0  0  0  0  0  0  0  0  0  0  0  0
    6.3301    4.0000    0.0000 C   0  0  0  0  0  0  0  0  0  0  0  0
    3.7321   -3.5000    0.0000 C   0  0  0  0  0  0  0  0  0  0  0  0
    5.4641   -3.5000    0.0000 C   0  0  0  0  0  0  0  0  0  0  0  0
    8.0622    5.0000    0.0000 C   0  0  0  0  0  0  0  0  0  0  0  0
    6.3301    5.0000    0.0000 C   0  0  0  0  0  0  0  0  0  0  0  0
    3.7321   -4.5000    0.0000 C   0  0  0  0  0  0  0  0  0  0  0  0
    4.5981   -5.0000    0.0000 C   0  0  0  0  0  0  0  0  0  0  0  0
    5.4641   -4.5000    0.0000 C   0  0  0  0  0  0  0  0  0  0  0  0
    7.1962    5.5000    0.0000 C   0  0  0  0  0  0  0  0  0  0  0  0
    2.0000   -3.5000    0.0000 C   0  0  0  0  0  0  0  0  0  0  0  0
    5.4641   -6.5000    0.0000 C   0  0  0  0  0  0  0  0  0  0  0  0
    6.5422   -0.5826    0.0000 H   0  0  0  0  0  0  0  0  0  0  0  0
    6.9407    0.1077    0.0000 H   0  0  0  0  0  0  0  0  0  0  0  0
    6.1181    1.5826    0.0000 H   0  0  0  0  0  0  0  0  0  0  0  0
    5.7196    0.8923    0.0000 H   0  0  0  0  0  0  0  0  0  0  0  0
    5.2521    0.0826    0.0000 H   0  0  0  0  0  0  0  0  0  0  0  0
    4.8535   -0.6077    0.0000 H   0  0  0  0  0  0  0  0  0  0  0  0
    7.7331    1.1900    0.0000 H   0  0  0  0  0  0  0  0  0  0  0  0
    4.0611   -1.6900    0.0000 H   0  0  0  0  0  0  0  0  0  0  0  0
    8.5991    3.6900    0.0000 H   0  0  0  0  0  0  0  0  0  0  0  0
    5.7932    3.6900    0.0000 H   0  0  0  0  0  0  0  0  0  0  0  0
    6.0010   -3.1900    0.0000 H   0  0  0  0  0  0  0  0  0  0  0  0
    8.5991    5.3100    0.0000 H   0  0  0  0  0  0  0  0  0  0  0  0
    5.7932    5.3100    0.0000 H   0  0  0  0  0  0  0  0  0  0  0  0
    3.1951   -4.8100    0.0000 H   0  0  0  0  0  0  0  0  0  0  0  0
    6.0010   -4.8100    0.0000 H   0  0  0  0  0  0  0  0  0  0  0  0
    1.6900   -2.9631    0.0000 H   0  0  0  0  0  0  0  0  0  0  0  0
    1.4631   -3.8100    0.0000 H   0  0  0  0  0  0  0  0  0  0  0  0
    2.3100   -4.0369    0.0000 H   0  0  0  0  0  0  0  0  0  0  0  0
    5.1541   -7.0369    0.0000 H   0  0  0  0  0  0  0  0  0  0  0  0
    6.0010   -6.8100    0.0000 H   0  0  0  0  0  0  0  0  0  0  0  0
    5.7741   -5.9631    0.0000 H   0  0  0  0  0  0  0  0  0  0  0  0
  1  3  2  0  0  0  0 
  1  4  2  0  0  0  0 
  1  8  1  0  0  0  0 
  1 14  1  0  0  0  0 
  2 25  1  0  0  0  0 
  5 13  2  0  0  0  0 
  6 18  1  0  0  0  0 
  6 26  1  0  0  0  0 
  7 23  1  0  0  0  0 
  7 27  1  0  0  0  0 
  8 11  1  0  0  0  0 
  8 34  1  0  0  0  0 
  9 13  1  0  0  0  0 
  9 15  1  0  0  0  0 
  9 35  1  0  0  0  0 
 10 11  1  0  0  0  0 
 10 12  1  0  0  0  0 
 10 28  1  0  0  0  0 
 10 29  1  0  0  0  0 
 11 30  1  0  0  0  0 
 11 31  1  0  0  0  0 
 12 13  1  0  0  0  0 
 12 32  1  0  0  0  0 
 12 33  1  0  0  0  0 
 14 16  2  0  0  0  0 
 14 17  1  0  0  0  0 
 15 18  2  0  0  0  0 
 15 19  1  0  0  0  0 
 16 20  1  0  0  0  0 
 16 36  1  0  0  0  0 
 17 21  2  0  0  0  0 
 17 37  1  0  0  0  0 
 18 22  1  0  0  0  0 
 19 24  2  0  0  0  0 
 19 38  1  0  0  0  0 
 20 25  2  0  0  0  0 
 20 39  1  0  0  0  0 
 21 25  1  0  0  0  0 
 21 40  1  0  0  0  0 
 22 23  2  0  0  0  0 
 22 41  1  0  0  0  0 
 23 24  1  0  0  0  0 
 24 42  1  0  0  0  0 
 26 43  1  0  0  0  0 
 26 44  1  0  0  0  0 
 26 45  1  0  0  0  0 
 27 46  1  0  0  0  0 
 27 47  1  0  0  0  0 
 27 48  1  0  0  0  0 
M  END
> <cdk:Title>
33958512

> <cdk:Remark>
null

> <PUBCHEM_COMPOUND_CID>
33958512

> <PUBCHEM_COMPOUND_CANONICALIZED>
1

> <PUBCHEM_CACTVS_COMPLEXITY>
561

> <PUBCHEM_CACTVS_HBOND_ACCEPTOR>
7

> <PUBCHEM_CACTVS_HBOND_DONOR>
2

> <PUBCHEM_CACTVS_ROTATABLE_BOND>
9

> <PUBCHEM_CACTVS_SUBSKEYS>
AAADceB7OQBAAAAAAAAAAAAAAAAAAAAAAAAwYAAAAAAAAAABQAAAHwQQQAAACAzB0A4yx4LABAKIACVSUHDCCBAhIgAIiJkHbIgOJzLEsZuFMChl1BXY6Ae0YAwAAEAACAAAEAAAgAAQAAAgAAAAAAAAAA==

> <PUBCHEM_IUPAC_OPENEYE_NAME>
N-(2,4-dimethoxyphenyl)-4-[(4-fluorophenyl)sulfonylamino]butanamide

> <PUBCHEM_IUPAC_CAS_NAME>
N-(2,4-dimethoxyphenyl)-4-[(4-fluorophenyl)sulfonylamino]butanamide

> <PUBCHEM_IUPAC_NAME>
N-(2,4-dimethoxyphenyl)-4-[(4-fluorophenyl)sulfonylamino]butanamide

> <PUBCHEM_IUPAC_SYSTEMATIC_NAME>
N-(2,4-dimethoxyphenyl)-4-[(4-fluorophenyl)sulfonylamino]butanamide

> <PUBCHEM_IUPAC_TRADITIONAL_NAME>
N-(2,4-dimethoxyphenyl)-4-[(4-fluorophenyl)sulfonylamino]butyramide

> <PUBCHEM_IUPAC_INCHI>
InChI=1S/C18H21FN2O5S/c1-25-14-7-10-16(17(12-14)26-2)21-18(22)4-3-11-20-27(23,24)15-8-5-13(19)6-9-15/h5-10,12,20H,3-4,11H2,1-2H3,(H,21,22)

> <PUBCHEM_IUPAC_INCHIKEY>
LMBDEOBQCXXNIA-UHFFFAOYSA-N

> <PUBCHEM_XLOGP3_AA>
2.1

> <PUBCHEM_EXACT_MASS>
396.115521

> <PUBCHEM_MOLECULAR_FORMULA>
C18H21FN2O5S

> <PUBCHEM_MOLECULAR_WEIGHT>
396.433143

> <PUBCHEM_OPENEYE_CAN_SMILES>
COC1=CC(=C(C=C1)NC(=O)CCCNS(=O)(=O)C2=CC=C(C=C2)F)OC

> <PUBCHEM_OPENEYE_ISO_SMILES>
COC1=CC(=C(C=C1)NC(=O)CCCNS(=O)(=O)C2=CC=C(C=C2)F)OC

> <PUBCHEM_CACTVS_TPSA>
102

> <PUBCHEM_MONOISOTOPIC_WEIGHT>
396.115521

> <PUBCHEM_TOTAL_CHARGE>
0

> <PUBCHEM_HEAVY_ATOM_COUNT>
27

> <PUBCHEM_ATOM_DEF_STEREO_COUNT>
0

> <PUBCHEM_ATOM_UDEF_STEREO_COUNT>
0

> <PUBCHEM_BOND_DEF_STEREO_COUNT>
0

> <PUBCHEM_BOND_UDEF_STEREO_COUNT>
0

> <PUBCHEM_ISOTOPIC_ATOM_COUNT>
0

> <PUBCHEM_COMPONENT_COUNT>
1

> <PUBCHEM_CACTVS_TAUTO_COUNT>
2

> <PUBCHEM_COORDINATE_TYPE>
1

> <PUBCHEM_BONDANNOTATIONS>
14  16  8

$$$$
33958512
  CDK     1110141352

 48 49  0  0  0  0  0  0  0  0999 V2000
    7.1962    2.5000    0.0000 S   0  0  0  0  0  0  0  0  0  0  0  0
    7.1962    6.5000    0.0000 F   0  0  0  0  0  0  0  0  0  0  0  0
    8.1962    2.5000    0.0000 O   0  0  0  0  0  0  0  0  0  0  0  0
    6.1962    2.5000    0.0000 O   0  0  0  0  0  0  0  0  0  0  0  0
    6.3301   -2.0000    0.0000 O   0  0  0  0  0  0  0  0  0  0  0  0
    2.8660   -3.0000    0.0000 O   0  0  0  0  0  0  0  0  0  0  0  0
    4.5981   -6.0000    0.0000 O   0  0  0  0  0  0  0  0  0  0  0  0
    7.1962    1.5000    0.0000 N   0  0  0  0  0  0  0  0  0  0  0  0
    4.5981   -2.0000    0.0000 N   0  0  0  0  0  0  0  0  0  0  0  0
    6.3301    0.0000    0.0000 C   0  0  0  0  0  0  0  0  0  0  0  0
    6.3301    1.0000    0.0000 C   0  0  0  0  0  0  0  0  0  0  0  0
    5.4641   -0.5000    0.0000 C   0  0  0  0  0  0  0  0  0  0  0  0
    5.4641   -1.5000    0.0000 C   0  0  0  0  0  0  0  0  0  0  0  0
    7.1962    3.5000    0.0000 C   0  0  0  0  0  0  0  0  0  0  0  0
    4.5981   -3.0000    0.0000 C   0  0  0  0  0  0  0  0  0  0  0  0
    8.0622    4.0000    0.0000 C   0  0  0  0  0  0  0  0  0  0  0  0
    6.3301    4.0000    0.0000 C   0  0  0  0  0  0  0  0  0  0  0  0
    3.7321   -3.5000    0.0000 C   0  0  0  0  0  0  0  0  0  0  0  0
    5.4641   -3.5000    0.0000 C   0  0  0  0  0  0  0  0  0  0  0  0
    8.0622    5.0000    0.0000 C   0  0  0  0  0  0  0  0  0  0  0  0
    6.3301    5.0000    0.0000 C   0  0  0  0  0  0  0  0  0  0  0  0
    3.7321   -4.5000    0.0000 C   0  0  0  0  0  0  0  0  0  0  0  0
    4.5981   -5.0000    0.0000 C   0  0  0  0  0  0  0  0  0  0  0  0
    5.4641   -4.5000    0.0000 C   0  0  0  0  0  0  0  0  0  0  0  0
    7.1962    5.5000    0.0000 C   0  0  0  0  0  0  0  0  0  0  0  0
    2.0000   -3.5000    0.0000 C   0  0  0  0  0  0  0  0  0  0  0  0
    5.4641   -6.5000    0.0000 C   0  0  0  0  0  0  0  0  0  0  0  0
    6.5422   -0.5826    0.0000 H   0  0  0  0  0  0  0  0  0  0  0  0
    6.9407    0.1077    0.0000 H   0  0  0  0  0  0  0  0  0  0  0  0
    6.1181    1.5826    0.0000 H   0  0  0  0  0  0  0  0  0  0  0  0
    5.7196    0.8923    0.0000 H   0  0  0  0  0  0  0  0  0  0  0  0
    5.2521    0.0826    0.0000 H   0  0  0  0  0  0  0  0  0  0  0  0
    4.8535   -0.6077    0.0000 H   0  0  0  0  0  0  0  0  0  0  0  0
    7.7331    1.1900    0.0000 H   0  0  0  0  0  0  0  0  0  0  0  0
    4.0611   -1.6900    0.0000 H   0  0  0  0  0  0  0  0  0  0  0  0
    8.5991    3.6900    0.0000 H   0  0  0  0  0  0  0  0  0  0  0  0
    5.7932    3.6900    0.0000 H   0  0  0  0  0  0  0  0  0  0  0  0
    6.0010   -3.1900    0.0000 H   0  0  0  0  0  0  0  0  0  0  0  0
    8.5991    5.3100    0.0000 H   0  0  0  0  0  0  0  0  0  0  0  0
    5.7932    5.3100    0.0000 H   0  0  0  0  0  0  0  0  0  0  0  0
    3.1951   -4.8100    0.0000 H   0  0  0  0  0  0  0  0  0  0  0  0
    6.0010   -4.8100    0.0000 H   0  0  0  0  0  0  0  0  0  0  0  0
    1.6900   -2.9631    0.0000 H   0  0  0  0  0  0  0  0  0  0  0  0
    1.4631   -3.8100    0.0000 H   0  0  0  0  0  0  0  0  0  0  0  0
    2.3100   -4.0369    0.0000 H   0  0  0  0  0  0  0  0  0  0  0  0
    5.1541   -7.0369    0.0000 H   0  0  0  0  0  0  0  0  0  0  0  0
    6.0010   -6.8100    0.0000 H   0  0  0  0  0  0  0  0  0  0  0  0
    5.7741   -5.9631    0.0000 H   0  0  0  0  0  0  0  0  0  0  0  0
  1  3  2  0  0  0  0 
  1  4  2  0  0  0  0 
  1  8  1  0  0  0  0 
  1 14  1  0  0  0  0 
  2 25  1  0  0  0  0 
  5 13  2  0  0  0  0 
  6 18  1  0  0  0  0 
  6 26  1  0  0  0  0 
  7 23  1  0  0  0  0 
  7 27  1  0  0  0  0 
  8 11  1  0  0  0  0 
  8 34  1  0  0  0  0 
  9 13  1  0  0  0  0 
  9 15  1  0  0  0  0 
  9 35  1  0  0  0  0 
 10 11  1  0  0  0  0 
 10 12  1  0  0  0  0 
 10 28  1  0  0  0  0 
 10 29  1  0  0  0  0 
 11 30  1  0  0  0  0 
 11 31  1  0  0  0  0 
 12 13  1  0  0  0  0 
 12 32  1  0  0  0  0 
 12 33  1  0  0  0  0 
 14 16  2  0  0  0  0 
 14 17  1  0  0  0  0 
 15 18  2  0  0  0  0 
 15 19  1  0  0  0  0 
 16 20  1  0  0  0  0 
 16 36  1  0  0  0  0 
 17 21  2  0  0  0  0 
 17 37  1  0  0  0  0 
 18 22  1  0  0  0  0 
 19 24  2  0  0  0  0 
 19 38  1  0  0  0  0 
 20 25  2  0  0  0  0 
 20 39  1  0  0  0  0 
 21 25  1  0  0  0  0 
 21 40  1  0  0  0  0 
 22 23  2  0  0  0  0 
 22 41  1  0  0  0  0 
 23 24  1  0  0  0  0 
 24 42  1  0  0  0  0 
 26 43  1  0  0  0  0 
 26 44  1  0  0  0  0 
 26 45  1  0  0  0  0 
 27 46  1  0  0  0  0 
 27 47  1  0  0  0  0 
 27 48  1  0  0  0  0 
M  END
> <cdk:Title>
33958512

> <cdk:Remark>
null

> <PUBCHEM_COMPOUND_CID>
33958512

> <PUBCHEM_COMPOUND_CANONICALIZED>
1

> <PUBCHEM_CACTVS_COMPLEXITY>
561

> <PUBCHEM_CACTVS_HBOND_ACCEPTOR>
7

> <PUBCHEM_CACTVS_HBOND_DONOR>
2

> <PUBCHEM_CACTVS_ROTATABLE_BOND>
9

> <PUBCHEM_CACTVS_SUBSKEYS>
AAADceB7OQBAAAAAAAAAAAAAAAAAAAAAAAAwYAAAAAAAAAABQAAAHwQQQAAACAzB0A4yx4LABAKIACVSUHDCCBAhIgAIiJkHbIgOJzLEsZuFMChl1BXY6Ae0YAwAAEAACAAAEAAAgAAQAAAgAAAAAAAAAA==

> <PUBCHEM_IUPAC_OPENEYE_NAME>
N-(2,4-dimethoxyphenyl)-4-[(4-fluorophenyl)sulfonylamino]butanamide

> <PUBCHEM_IUPAC_CAS_NAME>
N-(2,4-dimethoxyphenyl)-4-[(4-fluorophenyl)sulfonylamino]butanamide

> <PUBCHEM_IUPAC_NAME>
N-(2,4-dimethoxyphenyl)-4-[(4-fluorophenyl)sulfonylamino]butanamide

> <PUBCHEM_IUPAC_SYSTEMATIC_NAME>
N-(2,4-dimethoxyphenyl)-4-[(4-fluorophenyl)sulfonylamino]butanamide

> <PUBCHEM_IUPAC_TRADITIONAL_NAME>
N-(2,4-dimethoxyphenyl)-4-[(4-fluorophenyl)sulfonylamino]butyramide

> <PUBCHEM_IUPAC_INCHI>
InChI=1S/C18H21FN2O5S/c1-25-14-7-10-16(17(12-14)26-2)21-18(22)4-3-11-20-27(23,24)15-8-5-13(19)6-9-15/h5-10,12,20H,3-4,11H2,1-2H3,(H,21,22)

> <PUBCHEM_IUPAC_INCHIKEY>
LMBDEOBQCXXNIA-UHFFFAOYSA-N

> <PUBCHEM_XLOGP3_AA>
2.1

> <PUBCHEM_EXACT_MASS>
396.115521

> <PUBCHEM_MOLECULAR_FORMULA>
C18H21FN2O5S

> <PUBCHEM_MOLECULAR_WEIGHT>
396.433143

> <PUBCHEM_OPENEYE_CAN_SMILES>
COC1=CC(=C(C=C1)NC(=O)CCCNS(=O)(=O)C2=CC=C(C=C2)F)OC

> <PUBCHEM_OPENEYE_ISO_SMILES>
COC1=CC(=C(C=C1)NC(=O)CCCNS(=O)(=O)C2=CC=C(C=C2)F)OC

> <PUBCHEM_CACTVS_TPSA>
102

> <PUBCHEM_MONOISOTOPIC_WEIGHT>
396.115521

> <PUBCHEM_TOTAL_CHARGE>
0

> <PUBCHEM_HEAVY_ATOM_COUNT>
27

> <PUBCHEM_ATOM_DEF_STEREO_COUNT>
0

> <PUBCHEM_ATOM_UDEF_STEREO_COUNT>
0

> <PUBCHEM_BOND_DEF_STEREO_COUNT>
0

> <PUBCHEM_BOND_UDEF_STEREO_COUNT>
0

> <PUBCHEM_ISOTOPIC_ATOM_COUNT>
0

> <PUBCHEM_COMPONENT_COUNT>
1

> <PUBCHEM_CACTVS_TAUTO_COUNT>
2

> <PUBCHEM_COORDINATE_TYPE>
1

> <PUBCHEM_BONDANNOTATIONS>
14  16  8

$$$$
33958512
  CDK     1110141358

 48 49  0  0  0  0  0  0  0  0999 V2000
    7.1962    2.5000    0.0000 S   0  0  0  0  0  0  0  0  0  0  0  0
    7.1962    6.5000    0.0000 F   0  0  0  0  0  0  0  0  0  0  0  0
    8.1962    2.5000    0.0000 O   0  0  0  0  0  0  0  0  0  0  0  0
    6.1962    2.5000    0.0000 O   0  0  0  0  0  0  0  0  0  0  0  0
    6.3301   -2.0000    0.0000 O   0  0  0  0  0  0  0  0  0  0  0  0
    2.8660   -3.0000    0.0000 O   0  0  0  0  0  0  0  0  0  0  0  0
    4.5981   -6.0000    0.0000 O   0  0  0  0  0  0  0  0  0  0  0  0
    7.1962    1.5000    0.0000 N   0  0  0  0  0  0  0  0  0  0  0  0
    4.5981   -2.0000    0.0000 N   0  0  0  0  0  0  0  0  0  0  0  0
    6.3301    0.0000    0.0000 C   0  0  0  0  0  0  0  0  0  0  0  0
    6.3301    1.0000    0.0000 C   0  0  0  0  0  0  0  0  0  0  0  0
    5.4641   -0.5000    0.0000 C   0  0  0  0  0  0  0  0  0  0  0  0
    5.4641   -1.5000    0.0000 C   0  0  0  0  0  0  0  0  0  0  0  0
    7.1962    3.5000    0.0000 C   0  0  0  0  0  0  0  0  0  0  0  0
    4.5981   -3.0000    0.0000 C   0  0  0  0  0  0  0  0  0  0  0  0
    8.0622    4.0000    0.0000 C   0  0  0  0  0  0  0  0  0  0  0  0
    6.3301    4.0000    0.0000 C   0  0  0  0  0  0  0  0  0  0  0  0
    3.7321   -3.5000    0.0000 C   0  0  0  0  0  0  0  0  0  0  0  0
    5.4641   -3.5000    0.0000 C   0  0  0  0  0  0  0  0  0  0  0  0
    8.0622    5.0000    0.0000 C   0  0  0  0  0  0  0  0  0  0  0  0
    6.3301    5.0000    0.0000 C   0  0  0  0  0  0  0  0  0  0  0  0
    3.7321   -4.5000    0.0000 C   0  0  0  0  0  0  0  0  0  0  0  0
    4.5981   -5.0000    0.0000 C   0  0  0  0  0  0  0  0  0  0  0  0
    5.4641   -4.5000    0.0000 C   0  0  0  0  0  0  0  0  0  0  0  0
    7.1962    5.5000    0.0000 C   0  0  0  0  0  0  0  0  0  0  0  0
    2.0000   -3.5000    0.0000 C   0  0  0  0  0  0  0  0  0  0  0  0
    5.4641   -6.5000    0.0000 C   0  0  0  0  0  0  0  0  0  0  0  0
    6.5422   -0.5826    0.0000 H   0  0  0  0  0  0  0  0  0  0  0  0
    6.9407    0.1077    0.0000 H   0  0  0  0  0  0  0  0  0  0  0  0
    6.1181    1.5826    0.0000 H   0  0  0  0  0  0  0  0  0  0  0  0
    5.7196    0.8923    0.0000 H   0  0  0  0  0  0  0  0  0  0  0  0
    5.2521    0.0826    0.0000 H   0  0  0  0  0  0  0  0  0  0  0  0
    4.8535   -0.6077    0.0000 H   0  0  0  0  0  0  0  0  0  0  0  0
    7.7331    1.1900    0.0000 H   0  0  0  0  0  0  0  0  0  0  0  0
    4.0611   -1.6900    0.0000 H   0  0  0  0  0  0  0  0  0  0  0  0
    8.5991    3.6900    0.0000 H   0  0  0  0  0  0  0  0  0  0  0  0
    5.7932    3.6900    0.0000 H   0  0  0  0  0  0  0  0  0  0  0  0
    6.0010   -3.1900    0.0000 H   0  0  0  0  0  0  0  0  0  0  0  0
    8.5991    5.3100    0.0000 H   0  0  0  0  0  0  0  0  0  0  0  0
    5.7932    5.3100    0.0000 H   0  0  0  0  0  0  0  0  0  0  0  0
    3.1951   -4.8100    0.0000 H   0  0  0  0  0  0  0  0  0  0  0  0
    6.0010   -4.8100    0.0000 H   0  0  0  0  0  0  0  0  0  0  0  0
    1.6900   -2.9631    0.0000 H   0  0  0  0  0  0  0  0  0  0  0  0
    1.4631   -3.8100    0.0000 H   0  0  0  0  0  0  0  0  0  0  0  0
    2.3100   -4.0369    0.0000 H   0  0  0  0  0  0  0  0  0  0  0  0
    5.1541   -7.0369    0.0000 H   0  0  0  0  0  0  0  0  0  0  0  0
    6.0010   -6.8100    0.0000 H   0  0  0  0  0  0  0  0  0  0  0  0
    5.7741   -5.9631    0.0000 H   0  0  0  0  0  0  0  0  0  0  0  0
  1  3  2  0  0  0  0 
  1  4  2  0  0  0  0 
  1  8  1  0  0  0  0 
  1 14  1  0  0  0  0 
  2 25  1  0  0  0  0 
  5 13  2  0  0  0  0 
  6 18  1  0  0  0  0 
  6 26  1  0  0  0  0 
  7 23  1  0  0  0  0 
  7 27  1  0  0  0  0 
  8 11  1  0  0  0  0 
  8 34  1  0  0  0  0 
  9 13  1  0  0  0  0 
  9 15  1  0  0  0  0 
  9 35  1  0  0  0  0 
 10 11  1  0  0  0  0 
 10 12  1  0  0  0  0 
 10 28  1  0  0  0  0 
 10 29  1  0  0  0  0 
 11 30  1  0  0  0  0 
 11 31  1  0  0  0  0 
 12 13  1  0  0  0  0 
 12 32  1  0  0  0  0 
 12 33  1  0  0  0  0 
 14 16  2  0  0  0  0 
 14 17  1  0  0  0  0 
 15 18  2  0  0  0  0 
 15 19  1  0  0  0  0 
 16 20  1  0  0  0  0 
 16 36  1  0  0  0  0 
 17 21  2  0  0  0  0 
 17 37  1  0  0  0  0 
 18 22  1  0  0  0  0 
 19 24  2  0  0  0  0 
 19 38  1  0  0  0  0 
 20 25  2  0  0  0  0 
 20 39  1  0  0  0  0 
 21 25  1  0  0  0  0 
 21 40  1  0  0  0  0 
 22 23  2  0  0  0  0 
 22 41  1  0  0  0  0 
 23 24  1  0  0  0  0 
 24 42  1  0  0  0  0 
 26 43  1  0  0  0  0 
 26 44  1  0  0  0  0 
 26 45  1  0  0  0  0 
 27 46  1  0  0  0  0 
 27 47  1  0  0  0  0 
 27 48  1  0  0  0  0 
M  END
> <cdk:Title>
33958512

> <cdk:Remark>
null

> <PUBCHEM_COMPOUND_CID>
33958512

> <PUBCHEM_COMPOUND_CANONICALIZED>
1

> <PUBCHEM_CACTVS_COMPLEXITY>
561

> <PUBCHEM_CACTVS_HBOND_ACCEPTOR>
7

> <PUBCHEM_CACTVS_HBOND_DONOR>
2

> <PUBCHEM_CACTVS_ROTATABLE_BOND>
9

> <PUBCHEM_CACTVS_SUBSKEYS>
AAADceB7OQBAAAAAAAAAAAAAAAAAAAAAAAAwYAAAAAAAAAABQAAAHwQQQAAACAzB0A4yx4LABAKIACVSUHDCCBAhIgAIiJkHbIgOJzLEsZuFMChl1BXY6Ae0YAwAAEAACAAAEAAAgAAQAAAgAAAAAAAAAA==

> <PUBCHEM_IUPAC_OPENEYE_NAME>
N-(2,4-dimethoxyphenyl)-4-[(4-fluorophenyl)sulfonylamino]butanamide

> <PUBCHEM_IUPAC_CAS_NAME>
N-(2,4-dimethoxyphenyl)-4-[(4-fluorophenyl)sulfonylamino]butanamide

> <PUBCHEM_IUPAC_NAME>
N-(2,4-dimethoxyphenyl)-4-[(4-fluorophenyl)sulfonylamino]butanamide

> <PUBCHEM_IUPAC_SYSTEMATIC_NAME>
N-(2,4-dimethoxyphenyl)-4-[(4-fluorophenyl)sulfonylamino]butanamide

> <PUBCHEM_IUPAC_TRADITIONAL_NAME>
N-(2,4-dimethoxyphenyl)-4-[(4-fluorophenyl)sulfonylamino]butyramide

> <PUBCHEM_IUPAC_INCHI>
InChI=1S/C18H21FN2O5S/c1-25-14-7-10-16(17(12-14)26-2)21-18(22)4-3-11-20-27(23,24)15-8-5-13(19)6-9-15/h5-10,12,20H,3-4,11H2,1-2H3,(H,21,22)

> <PUBCHEM_IUPAC_INCHIKEY>
LMBDEOBQCXXNIA-UHFFFAOYSA-N

> <PUBCHEM_XLOGP3_AA>
2.1

> <PUBCHEM_EXACT_MASS>
396.115521

> <PUBCHEM_MOLECULAR_FORMULA>
C18H21FN2O5S

> <PUBCHEM_MOLECULAR_WEIGHT>
396.433143

> <PUBCHEM_OPENEYE_CAN_SMILES>
COC1=CC(=C(C=C1)NC(=O)CCCNS(=O)(=O)C2=CC=C(C=C2)F)OC

> <PUBCHEM_OPENEYE_ISO_SMILES>
COC1=CC(=C(C=C1)NC(=O)CCCNS(=O)(=O)C2=CC=C(C=C2)F)OC

> <PUBCHEM_CACTVS_TPSA>
102

> <PUBCHEM_MONOISOTOPIC_WEIGHT>
396.115521

> <PUBCHEM_TOTAL_CHARGE>
0

> <PUBCHEM_HEAVY_ATOM_COUNT>
27

> <PUBCHEM_ATOM_DEF_STEREO_COUNT>
0

> <PUBCHEM_ATOM_UDEF_STEREO_COUNT>
0

> <PUBCHEM_BOND_DEF_STEREO_COUNT>
0

> <PUBCHEM_BOND_UDEF_STEREO_COUNT>
0

> <PUBCHEM_ISOTOPIC_ATOM_COUNT>
0

> <PUBCHEM_COMPONENT_COUNT>
1

> <PUBCHEM_CACTVS_TAUTO_COUNT>
2

> <PUBCHEM_COORDINATE_TYPE>
1

> <PUBCHEM_BONDANNOTATIONS>
14  16  8

$$$$
