3437639
  CDK     1110141344

 73 79  0  0  0  0  0  0  0  0999 V2000
    9.5972   -6.3334    0.0000 Br  0  0  0  0  0  0  0  0  0  0  0  0
    8.9282    0.7944    0.0000 Cl  0  0  0  0  0  0  0  0  0  0  0  0
    6.3301    2.2944    0.0000 Cl  0  0  0  0  0  0  0  0  0  0  0  0
   10.3941    2.8693    0.0000 F   0  0  0  0  0  0  0  0  0  0  0  0
    7.3941    4.6013    0.0000 F   0  0  0  0  0  0  0  0  0  0  0  0
    8.3941    6.3334    0.0000 F   0  0  0  0  0  0  0  0  0  0  0  0
   11.3941    4.6013    0.0000 F   0  0  0  0  0  0  0  0  0  0  0  0
   10.3941    6.3334    0.0000 F   0  0  0  0  0  0  0  0  0  0  0  0
    9.7777    1.7553    0.0000 O   0  0  0  0  0  0  0  0  0  0  0  0
    7.1991    3.7447    0.0000 O   0  0  0  0  0  0  0  0  0  0  0  0
    8.9621   -1.7222    0.0000 O   0  0  0  0  0  0  0  0  0  0  0  0
    5.8778   -3.5348    0.0000 O   0  0  0  0  0  0  0  0  0  0  0  0
    5.9641    3.6604    0.0000 O   0  0  0  0  0  0  0  0  0  0  0  0
    4.5981    0.2944    0.0000 O   0  0  0  0  0  0  0  0  0  0  0  0
    2.8660    3.2944    0.0000 O   0  0  0  0  0  0  0  0  0  0  0  0
    8.3941    2.8693    0.0000 N   0  0  0  0  0  0  0  0  0  0  0  0
    7.5706   -2.8848    0.0000 N   0  0  0  0  0  0  0  0  0  0  0  0
    7.1962   -0.2056    0.0000 C   0  0  3  0  0  0  0  0  0  0  0  0
    7.2122   -1.2471    0.0000 C   0  0  3  0  0  0  0  0  0  0  0  0
    8.0622    1.2944    0.0000 C   0  0  3  0  0  0  0  0  0  0  0  0
    7.1962    1.7944    0.0000 C   0  0  3  0  0  0  0  0  0  0  0  0
    8.0622    0.2944    0.0000 C   0  0  0  0  0  0  0  0  0  0  0  0
    6.3301    1.2944    0.0000 C   0  0  3  0  0  0  0  0  0  0  0  0
    6.3301    0.2944    0.0000 C   0  0  0  0  0  0  0  0  0  0  0  0
    6.3142   -1.7748    0.0000 C   0  0  3  0  0  0  0  0  0  0  0  0
    5.4121   -1.2540    0.0000 C   0  0  0  0  0  0  0  0  0  0  0  0
    5.4201   -0.2124    0.0000 C   0  0  0  0  0  0  0  0  0  0  0  0
    8.7992    1.9615    0.0000 C   0  0  0  0  0  0  0  0  0  0  0  0
    7.4054    2.7662    0.0000 C   0  0  0  0  0  0  0  0  0  0  0  0
    7.9852   -1.9360    0.0000 C   0  0  0  0  0  0  0  0  0  0  0  0
    6.5399   -2.7854    0.0000 C   0  0  0  0  0  0  0  0  0  0  0  0
    5.4641    1.7944    0.0000 C   0  0  0  0  0  0  0  0  0  0  0  0
    5.4641    2.7944    0.0000 C   0  0  0  0  0  0  0  0  0  0  0  0
    4.5981    1.2944    0.0000 C   0  0  0  0  0  0  0  0  0  0  0  0
    8.8941    3.7353    0.0000 C   0  0  0  0  0  0  0  0  0  0  0  0
    8.0772   -3.7470    0.0000 C   0  0  0  0  0  0  0  0  0  0  0  0
    4.5981    3.2944    0.0000 C   0  0  0  0  0  0  0  0  0  0  0  0
    3.7320    1.7944    0.0000 C   0  0  0  0  0  0  0  0  0  0  0  0
    9.8941    3.7353    0.0000 C   0  0  0  0  0  0  0  0  0  0  0  0
    8.3941    4.6013    0.0000 C   0  0  0  0  0  0  0  0  0  0  0  0
    3.7320    2.7944    0.0000 C   0  0  0  0  0  0  0  0  0  0  0  0
    7.5839   -4.6168    0.0000 C   0  0  0  0  0  0  0  0  0  0  0  0
    9.0772   -3.7392    0.0000 C   0  0  0  0  0  0  0  0  0  0  0  0
    8.8941    5.4674    0.0000 C   0  0  0  0  0  0  0  0  0  0  0  0
   10.3941    4.6013    0.0000 C   0  0  0  0  0  0  0  0  0  0  0  0
    8.0906   -5.4790    0.0000 C   0  0  0  0  0  0  0  0  0  0  0  0
    9.5839   -4.6014    0.0000 C   0  0  0  0  0  0  0  0  0  0  0  0
    5.4641    4.5265    0.0000 C   0  0  0  0  0  0  0  0  0  0  0  0
    9.8941    5.4674    0.0000 C   0  0  0  0  0  0  0  0  0  0  0  0
    9.0906   -5.4712    0.0000 C   0  0  0  0  0  0  0  0  0  0  0  0
    2.0000    2.7944    0.0000 C   0  0  0  0  0  0  0  0  0  0  0  0
    7.7355   -0.5114    0.0000 H   0  0  0  0  0  0  0  0  0  0  0  0
    7.7760   -0.9891    0.0000 H   0  0  0  0  0  0  0  0  0  0  0  0
    8.2742   -0.2882    0.0000 H   0  0  0  0  0  0  0  0  0  0  0  0
    8.6728    0.4021    0.0000 H   0  0  0  0  0  0  0  0  0  0  0  0
    5.7932    0.9844    0.0000 H   0  0  0  0  0  0  0  0  0  0  0  0
    5.8145   -2.1418    0.0000 H   0  0  0  0  0  0  0  0  0  0  0  0
    4.8021   -1.1432    0.0000 H   0  0  0  0  0  0  0  0  0  0  0  0
    5.1986   -1.8361    0.0000 H   0  0  0  0  0  0  0  0  0  0  0  0
    4.8868    0.1038    0.0000 H   0  0  0  0  0  0  0  0  0  0  0  0
    4.5981    3.9144    0.0000 H   0  0  0  0  0  0  0  0  0  0  0  0
    3.1951    1.4844    0.0000 H   0  0  0  0  0  0  0  0  0  0  0  0
    6.9639   -4.6216    0.0000 H   0  0  0  0  0  0  0  0  0  0  0  0
    9.3831   -3.1999    0.0000 H   0  0  0  0  0  0  0  0  0  0  0  0
    4.0611   -0.0156    0.0000 H   0  0  0  0  0  0  0  0  0  0  0  0
    7.7847   -6.0183    0.0000 H   0  0  0  0  0  0  0  0  0  0  0  0
   10.2038   -4.5966    0.0000 H   0  0  0  0  0  0  0  0  0  0  0  0
    6.0010    4.8365    0.0000 H   0  0  0  0  0  0  0  0  0  0  0  0
    5.1541    5.0634    0.0000 H   0  0  0  0  0  0  0  0  0  0  0  0
    4.9272    4.2165    0.0000 H   0  0  0  0  0  0  0  0  0  0  0  0
    1.6900    3.3314    0.0000 H   0  0  0  0  0  0  0  0  0  0  0  0
    1.4631    2.4844    0.0000 H   0  0  0  0  0  0  0  0  0  0  0  0
    2.3100    2.2575    0.0000 H   0  0  0  0  0  0  0  0  0  0  0  0
  1 50  1  0  0  0  0 
  2 20  1  0  0  0  0 
  3 21  1  0  0  0  0 
  4 39  1  0  0  0  0 
  5 40  1  0  0  0  0 
  6 44  1  0  0  0  0 
  7 45  1  0  0  0  0 
  8 49  1  0  0  0  0 
  9 28  2  0  0  0  0 
 10 29  2  0  0  0  0 
 11 30  2  0  0  0  0 
 12 31  2  0  0  0  0 
 13 33  1  0  0  0  0 
 13 48  1  0  0  0  0 
 14 34  1  0  0  0  0 
 14 65  1  0  0  0  0 
 15 41  1  0  0  0  0 
 15 51  1  0  0  0  0 
 16 28  1  0  0  0  0 
 16 29  1  0  0  0  0 
 16 35  1  0  0  0  0 
 17 30  1  0  0  0  0 
 17 31  1  0  0  0  0 
 17 36  1  0  0  0  0 
 18 19  1  0  0  0  0 
 18 22  1  0  0  0  0 
 18 24  1  0  0  0  0 
 18 52  1  0  0  0  0 
 19 25  1  0  0  0  0 
 19 30  1  0  0  0  0 
 19 53  1  0  0  0  0 
 20 21  1  0  0  0  0 
 20 22  1  0  0  0  0 
 20 28  1  0  0  0  0 
 21 23  1  0  0  0  0 
 21 29  1  0  0  0  0 
 22 54  1  0  0  0  0 
 22 55  1  0  0  0  0 
 23 24  1  0  0  0  0 
 23 32  1  0  0  0  0 
 23 56  1  0  0  0  0 
 24 27  2  0  0  0  0 
 25 26  1  0  0  0  0 
 25 31  1  0  0  0  0 
 25 57  1  0  0  0  0 
 26 27  1  0  0  0  0 
 26 58  1  0  0  0  0 
 26 59  1  0  0  0  0 
 27 60  1  0  0  0  0 
 32 33  1  0  0  0  0 
 32 34  2  0  0  0  0 
 33 37  2  0  0  0  0 
 34 38  1  0  0  0  0 
 35 39  2  0  0  0  0 
 35 40  1  0  0  0  0 
 36 42  2  0  0  0  0 
 36 43  1  0  0  0  0 
 37 41  1  0  0  0  0 
 37 61  1  0  0  0  0 
 38 41  2  0  0  0  0 
 38 62  1  0  0  0  0 
 39 45  1  0  0  0  0 
 40 44  2  0  0  0  0 
 42 46  1  0  0  0  0 
 42 63  1  0  0  0  0 
 43 47  2  0  0  0  0 
 43 64  1  0  0  0  0 
 44 49  1  0  0  0  0 
 45 49  2  0  0  0  0 
 46 50  2  0  0  0  0 
 46 66  1  0  0  0  0 
 47 50  1  0  0  0  0 
 47 67  1  0  0  0  0 
 48 68  1  0  0  0  0 
 48 69  1  0  0  0  0 
 48 70  1  0  0  0  0 
 51 71  1  0  0  0  0 
 51 72  1  0  0  0  0 
 51 73  1  0  0  0  0 
M  END
> <cdk:Title>
3437639

> <cdk:Remark>
null

> <PUBCHEM_COMPOUND_CID>
3437639

> <PUBCHEM_COMPOUND_CANONICALIZED>
1

> <PUBCHEM_CACTVS_COMPLEXITY>
1490

> <PUBCHEM_CACTVS_HBOND_ACCEPTOR>
12

> <PUBCHEM_CACTVS_HBOND_DONOR>
1

> <PUBCHEM_CACTVS_ROTATABLE_BOND>
5

> <PUBCHEM_CACTVS_SUBSKEYS>
AAADceB/OcAGEAAAAAAAAAAAAAAAAWLAAAAwYMGCAAAAAFiBUAAAHwJACAABrQ6BmAoyxoMABgCIAiVSUACCCAAhIgQIiEEGbqhMJzLHsZvEcChlxDXI+hed/P7OoAAgCAAIAADIAERQADIACAAAAAAAAA==

> <PUBCHEM_IUPAC_OPENEYE_NAME>
2-(4-bromophenyl)-6a,9a-dichloro-6-(2-hydroxy-4,6-dimethoxy-phenyl)-8-(2,3,4,5,6-pentafluorophenyl)-3a,4,6,10,10a,10b-hexahydroisoindolo[5,6-e]isoindole-1,3,7,9-tetrone

> <PUBCHEM_IUPAC_CAS_NAME>
2-(4-bromophenyl)-6a,9a-dichloro-6-(2-hydroxy-4,6-dimethoxyphenyl)-8-(2,3,4,5,6-pentafluorophenyl)-3a,4,6,10,10a,10b-hexahydroisoindolo[5,6-e]isoindole-1,3,7,9-tetrone

> <PUBCHEM_IUPAC_NAME>
2-(4-bromophenyl)-6a,9a-dichloro-6-(2-hydroxy-4,6-dimethoxyphenyl)-8-(2,3,4,5,6-pentafluorophenyl)-3a,4,6,10,10a,10b-hexahydroisoindolo[5,6-e]isoindole-1,3,7,9-tetrone

> <PUBCHEM_IUPAC_SYSTEMATIC_NAME>
2-(4-bromophenyl)-6a,9a-bis(chloranyl)-6-(2,4-dimethoxy-6-oxidanyl-phenyl)-8-[2,3,4,5,6-pentakis(fluoranyl)phenyl]-3a,4,6,10,10a,10b-hexahydroisoindolo[5,6-e]isoindole-1,3,7,9-tetrone

> <PUBCHEM_IUPAC_TRADITIONAL_NAME>
2-(4-bromophenyl)-6a,9a-dichloro-6-(2-hydroxy-4,6-dimethoxy-phenyl)-8-(2,3,4,5,6-pentafluorophenyl)-3a,4,6,10,10a,10b-hexahydroisoindol[5,6-e]isoindole-1,3,7,9-diquinone

> <PUBCHEM_IUPAC_INCHI>
InChI=1S/C34H22BrCl2F5N2O7/c1-50-14-9-18(45)21(19(10-14)51-2)22-15-7-8-16-20(30(47)43(29(16)46)13-5-3-12(35)4-6-13)17(15)11-33(36)31(48)44(32(49)34(22,33)37)28-26(41)24(39)23(38)25(40)27(28)42/h3-7,9-10,16-17,20,22,45H,8,11H2,1-2H3

> <PUBCHEM_IUPAC_INCHIKEY>
WVPFSJGNDPSOEC-UHFFFAOYSA-N

> <PUBCHEM_XLOGP3_AA>
5.5

> <PUBCHEM_EXACT_MASS>
813.99076

> <PUBCHEM_MOLECULAR_FORMULA>
C34H22BrCl2F5N2O7

> <PUBCHEM_MOLECULAR_WEIGHT>
816.349696

> <PUBCHEM_OPENEYE_CAN_SMILES>
COC1=CC(=C(C(=C1)OC)C2C3=CCC4C(C3CC5(C2(C(=O)N(C5=O)C6=C(C(=C(C(=C6F)F)F)F)F)Cl)Cl)C(=O)N(C4=O)C7=CC=C(C=C7)Br)O

> <PUBCHEM_OPENEYE_ISO_SMILES>
COC1=CC(=C(C(=C1)OC)C2C3=CCC4C(C3CC5(C2(C(=O)N(C5=O)C6=C(C(=C(C(=C6F)F)F)F)F)Cl)Cl)C(=O)N(C4=O)C7=CC=C(C=C7)Br)O

> <PUBCHEM_CACTVS_TPSA>
113

> <PUBCHEM_MONOISOTOPIC_WEIGHT>
813.99076

> <PUBCHEM_TOTAL_CHARGE>
0

> <PUBCHEM_HEAVY_ATOM_COUNT>
51

> <PUBCHEM_ATOM_DEF_STEREO_COUNT>
0

> <PUBCHEM_ATOM_UDEF_STEREO_COUNT>
6

> <PUBCHEM_BOND_DEF_STEREO_COUNT>
0

> <PUBCHEM_BOND_UDEF_STEREO_COUNT>
0

> <PUBCHEM_ISOTOPIC_ATOM_COUNT>
0

> <PUBCHEM_COMPONENT_COUNT>
1

> <PUBCHEM_CACTVS_TAUTO_COUNT>
12

> <PUBCHEM_COORDINATE_TYPE>
1

> <PUBCHEM_BONDANNOTATIONS>
18  22  3

$$$$
3437639
  CDK     1110141346

 73 79  0  0  0  0  0  0  0  0999 V2000
    9.5972   -6.3334    0.0000 Br  0  0  0  0  0  0  0  0  0  0  0  0
    8.9282    0.7944    0.0000 Cl  0  0  0  0  0  0  0  0  0  0  0  0
    6.3301    2.2944    0.0000 Cl  0  0  0  0  0  0  0  0  0  0  0  0
   10.3941    2.8693    0.0000 F   0  0  0  0  0  0  0  0  0  0  0  0
    7.3941    4.6013    0.0000 F   0  0  0  0  0  0  0  0  0  0  0  0
    8.3941    6.3334    0.0000 F   0  0  0  0  0  0  0  0  0  0  0  0
   11.3941    4.6013    0.0000 F   0  0  0  0  0  0  0  0  0  0  0  0
   10.3941    6.3334    0.0000 F   0  0  0  0  0  0  0  0  0  0  0  0
    9.7777    1.7553    0.0000 O   0  0  0  0  0  0  0  0  0  0  0  0
    7.1991    3.7447    0.0000 O   0  0  0  0  0  0  0  0  0  0  0  0
    8.9621   -1.7222    0.0000 O   0  0  0  0  0  0  0  0  0  0  0  0
    5.8778   -3.5348    0.0000 O   0  0  0  0  0  0  0  0  0  0  0  0
    5.9641    3.6604    0.0000 O   0  0  0  0  0  0  0  0  0  0  0  0
    4.5981    0.2944    0.0000 O   0  0  0  0  0  0  0  0  0  0  0  0
    2.8660    3.2944    0.0000 O   0  0  0  0  0  0  0  0  0  0  0  0
    8.3941    2.8693    0.0000 N   0  0  0  0  0  0  0  0  0  0  0  0
    7.5706   -2.8848    0.0000 N   0  0  0  0  0  0  0  0  0  0  0  0
    7.1962   -0.2056    0.0000 C   0  0  3  0  0  0  0  0  0  0  0  0
    7.2122   -1.2471    0.0000 C   0  0  3  0  0  0  0  0  0  0  0  0
    8.0622    1.2944    0.0000 C   0  0  3  0  0  0  0  0  0  0  0  0
    7.1962    1.7944    0.0000 C   0  0  3  0  0  0  0  0  0  0  0  0
    8.0622    0.2944    0.0000 C   0  0  0  0  0  0  0  0  0  0  0  0
    6.3301    1.2944    0.0000 C   0  0  3  0  0  0  0  0  0  0  0  0
    6.3301    0.2944    0.0000 C   0  0  0  0  0  0  0  0  0  0  0  0
    6.3142   -1.7748    0.0000 C   0  0  3  0  0  0  0  0  0  0  0  0
    5.4121   -1.2540    0.0000 C   0  0  0  0  0  0  0  0  0  0  0  0
    5.4201   -0.2124    0.0000 C   0  0  0  0  0  0  0  0  0  0  0  0
    8.7992    1.9615    0.0000 C   0  0  0  0  0  0  0  0  0  0  0  0
    7.4054    2.7662    0.0000 C   0  0  0  0  0  0  0  0  0  0  0  0
    7.9852   -1.9360    0.0000 C   0  0  0  0  0  0  0  0  0  0  0  0
    6.5399   -2.7854    0.0000 C   0  0  0  0  0  0  0  0  0  0  0  0
    5.4641    1.7944    0.0000 C   0  0  0  0  0  0  0  0  0  0  0  0
    5.4641    2.7944    0.0000 C   0  0  0  0  0  0  0  0  0  0  0  0
    4.5981    1.2944    0.0000 C   0  0  0  0  0  0  0  0  0  0  0  0
    8.8941    3.7353    0.0000 C   0  0  0  0  0  0  0  0  0  0  0  0
    8.0772   -3.7470    0.0000 C   0  0  0  0  0  0  0  0  0  0  0  0
    4.5981    3.2944    0.0000 C   0  0  0  0  0  0  0  0  0  0  0  0
    3.7320    1.7944    0.0000 C   0  0  0  0  0  0  0  0  0  0  0  0
    9.8941    3.7353    0.0000 C   0  0  0  0  0  0  0  0  0  0  0  0
    8.3941    4.6013    0.0000 C   0  0  0  0  0  0  0  0  0  0  0  0
    3.7320    2.7944    0.0000 C   0  0  0  0  0  0  0  0  0  0  0  0
    7.5839   -4.6168    0.0000 C   0  0  0  0  0  0  0  0  0  0  0  0
    9.0772   -3.7392    0.0000 C   0  0  0  0  0  0  0  0  0  0  0  0
    8.8941    5.4674    0.0000 C   0  0  0  0  0  0  0  0  0  0  0  0
   10.3941    4.6013    0.0000 C   0  0  0  0  0  0  0  0  0  0  0  0
    8.0906   -5.4790    0.0000 C   0  0  0  0  0  0  0  0  0  0  0  0
    9.5839   -4.6014    0.0000 C   0  0  0  0  0  0  0  0  0  0  0  0
    5.4641    4.5265    0.0000 C   0  0  0  0  0  0  0  0  0  0  0  0
    9.8941    5.4674    0.0000 C   0  0  0  0  0  0  0  0  0  0  0  0
    9.0906   -5.4712    0.0000 C   0  0  0  0  0  0  0  0  0  0  0  0
    2.0000    2.7944    0.0000 C   0  0  0  0  0  0  0  0  0  0  0  0
    7.7355   -0.5114    0.0000 H   0  0  0  0  0  0  0  0  0  0  0  0
    7.7760   -0.9891    0.0000 H   0  0  0  0  0  0  0  0  0  0  0  0
    8.2742   -0.2882    0.0000 H   0  0  0  0  0  0  0  0  0  0  0  0
    8.6728    0.4021    0.0000 H   0  0  0  0  0  0  0  0  0  0  0  0
    5.7932    0.9844    0.0000 H   0  0  0  0  0  0  0  0  0  0  0  0
    5.8145   -2.1418    0.0000 H   0  0  0  0  0  0  0  0  0  0  0  0
    4.8021   -1.1432    0.0000 H   0  0  0  0  0  0  0  0  0  0  0  0
    5.1986   -1.8361    0.0000 H   0  0  0  0  0  0  0  0  0  0  0  0
    4.8868    0.1038    0.0000 H   0  0  0  0  0  0  0  0  0  0  0  0
    4.5981    3.9144    0.0000 H   0  0  0  0  0  0  0  0  0  0  0  0
    3.1951    1.4844    0.0000 H   0  0  0  0  0  0  0  0  0  0  0  0
    6.9639   -4.6216    0.0000 H   0  0  0  0  0  0  0  0  0  0  0  0
    9.3831   -3.1999    0.0000 H   0  0  0  0  0  0  0  0  0  0  0  0
    4.0611   -0.0156    0.0000 H   0  0  0  0  0  0  0  0  0  0  0  0
    7.7847   -6.0183    0.0000 H   0  0  0  0  0  0  0  0  0  0  0  0
   10.2038   -4.5966    0.0000 H   0  0  0  0  0  0  0  0  0  0  0  0
    6.0010    4.8365    0.0000 H   0  0  0  0  0  0  0  0  0  0  0  0
    5.1541    5.0634    0.0000 H   0  0  0  0  0  0  0  0  0  0  0  0
    4.9272    4.2165    0.0000 H   0  0  0  0  0  0  0  0  0  0  0  0
    1.6900    3.3314    0.0000 H   0  0  0  0  0  0  0  0  0  0  0  0
    1.4631    2.4844    0.0000 H   0  0  0  0  0  0  0  0  0  0  0  0
    2.3100    2.2575    0.0000 H   0  0  0  0  0  0  0  0  0  0  0  0
  1 50  1  0  0  0  0 
  2 20  1  0  0  0  0 
  3 21  1  0  0  0  0 
  4 39  1  0  0  0  0 
  5 40  1  0  0  0  0 
  6 44  1  0  0  0  0 
  7 45  1  0  0  0  0 
  8 49  1  0  0  0  0 
  9 28  2  0  0  0  0 
 10 29  2  0  0  0  0 
 11 30  2  0  0  0  0 
 12 31  2  0  0  0  0 
 13 33  1  0  0  0  0 
 13 48  1  0  0  0  0 
 14 34  1  0  0  0  0 
 14 65  1  0  0  0  0 
 15 41  1  0  0  0  0 
 15 51  1  0  0  0  0 
 16 28  1  0  0  0  0 
 16 29  1  0  0  0  0 
 16 35  1  0  0  0  0 
 17 30  1  0  0  0  0 
 17 31  1  0  0  0  0 
 17 36  1  0  0  0  0 
 18 19  1  0  0  0  0 
 18 22  1  0  0  0  0 
 18 24  1  0  0  0  0 
 18 52  1  0  0  0  0 
 19 25  1  0  0  0  0 
 19 30  1  0  0  0  0 
 19 53  1  0  0  0  0 
 20 21  1  0  0  0  0 
 20 22  1  0  0  0  0 
 20 28  1  0  0  0  0 
 21 23  1  0  0  0  0 
 21 29  1  0  0  0  0 
 22 54  1  0  0  0  0 
 22 55  1  0  0  0  0 
 23 24  1  0  0  0  0 
 23 32  1  0  0  0  0 
 23 56  1  0  0  0  0 
 24 27  2  0  0  0  0 
 25 26  1  0  0  0  0 
 25 31  1  0  0  0  0 
 25 57  1  0  0  0  0 
 26 27  1  0  0  0  0 
 26 58  1  0  0  0  0 
 26 59  1  0  0  0  0 
 27 60  1  0  0  0  0 
 32 33  1  0  0  0  0 
 32 34  2  0  0  0  0 
 33 37  2  0  0  0  0 
 34 38  1  0  0  0  0 
 35 39  2  0  0  0  0 
 35 40  1  0  0  0  0 
 36 42  2  0  0  0  0 
 36 43  1  0  0  0  0 
 37 41  1  0  0  0  0 
 37 61  1  0  0  0  0 
 38 41  2  0  0  0  0 
 38 62  1  0  0  0  0 
 39 45  1  0  0  0  0 
 40 44  2  0  0  0  0 
 42 46  1  0  0  0  0 
 42 63  1  0  0  0  0 
 43 47  2  0  0  0  0 
 43 64  1  0  0  0  0 
 44 49  1  0  0  0  0 
 45 49  2  0  0  0  0 
 46 50  2  0  0  0  0 
 46 66  1  0  0  0  0 
 47 50  1  0  0  0  0 
 47 67  1  0  0  0  0 
 48 68  1  0  0  0  0 
 48 69  1  0  0  0  0 
 48 70  1  0  0  0  0 
 51 71  1  0  0  0  0 
 51 72  1  0  0  0  0 
 51 73  1  0  0  0  0 
M  END
> <cdk:Title>
3437639

> <cdk:Remark>
null

> <PUBCHEM_COMPOUND_CID>
3437639

> <PUBCHEM_COMPOUND_CANONICALIZED>
1

> <PUBCHEM_CACTVS_COMPLEXITY>
1490

> <PUBCHEM_CACTVS_HBOND_ACCEPTOR>
12

> <PUBCHEM_CACTVS_HBOND_DONOR>
1

> <PUBCHEM_CACTVS_ROTATABLE_BOND>
5

> <PUBCHEM_CACTVS_SUBSKEYS>
AAADceB/OcAGEAAAAAAAAAAAAAAAAWLAAAAwYMGCAAAAAFiBUAAAHwJACAABrQ6BmAoyxoMABgCIAiVSUACCCAAhIgQIiEEGbqhMJzLHsZvEcChlxDXI+hed/P7OoAAgCAAIAADIAERQADIACAAAAAAAAA==

> <PUBCHEM_IUPAC_OPENEYE_NAME>
2-(4-bromophenyl)-6a,9a-dichloro-6-(2-hydroxy-4,6-dimethoxy-phenyl)-8-(2,3,4,5,6-pentafluorophenyl)-3a,4,6,10,10a,10b-hexahydroisoindolo[5,6-e]isoindole-1,3,7,9-tetrone

> <PUBCHEM_IUPAC_CAS_NAME>
2-(4-bromophenyl)-6a,9a-dichloro-6-(2-hydroxy-4,6-dimethoxyphenyl)-8-(2,3,4,5,6-pentafluorophenyl)-3a,4,6,10,10a,10b-hexahydroisoindolo[5,6-e]isoindole-1,3,7,9-tetrone

> <PUBCHEM_IUPAC_NAME>
2-(4-bromophenyl)-6a,9a-dichloro-6-(2-hydroxy-4,6-dimethoxyphenyl)-8-(2,3,4,5,6-pentafluorophenyl)-3a,4,6,10,10a,10b-hexahydroisoindolo[5,6-e]isoindole-1,3,7,9-tetrone

> <PUBCHEM_IUPAC_SYSTEMATIC_NAME>
2-(4-bromophenyl)-6a,9a-bis(chloranyl)-6-(2,4-dimethoxy-6-oxidanyl-phenyl)-8-[2,3,4,5,6-pentakis(fluoranyl)phenyl]-3a,4,6,10,10a,10b-hexahydroisoindolo[5,6-e]isoindole-1,3,7,9-tetrone

> <PUBCHEM_IUPAC_TRADITIONAL_NAME>
2-(4-bromophenyl)-6a,9a-dichloro-6-(2-hydroxy-4,6-dimethoxy-phenyl)-8-(2,3,4,5,6-pentafluorophenyl)-3a,4,6,10,10a,10b-hexahydroisoindol[5,6-e]isoindole-1,3,7,9-diquinone

> <PUBCHEM_IUPAC_INCHI>
InChI=1S/C34H22BrCl2F5N2O7/c1-50-14-9-18(45)21(19(10-14)51-2)22-15-7-8-16-20(30(47)43(29(16)46)13-5-3-12(35)4-6-13)17(15)11-33(36)31(48)44(32(49)34(22,33)37)28-26(41)24(39)23(38)25(40)27(28)42/h3-7,9-10,16-17,20,22,45H,8,11H2,1-2H3

> <PUBCHEM_IUPAC_INCHIKEY>
WVPFSJGNDPSOEC-UHFFFAOYSA-N

> <PUBCHEM_XLOGP3_AA>
5.5

> <PUBCHEM_EXACT_MASS>
813.99076

> <PUBCHEM_MOLECULAR_FORMULA>
C34H22BrCl2F5N2O7

> <PUBCHEM_MOLECULAR_WEIGHT>
816.349696

> <PUBCHEM_OPENEYE_CAN_SMILES>
COC1=CC(=C(C(=C1)OC)C2C3=CCC4C(C3CC5(C2(C(=O)N(C5=O)C6=C(C(=C(C(=C6F)F)F)F)F)Cl)Cl)C(=O)N(C4=O)C7=CC=C(C=C7)Br)O

> <PUBCHEM_OPENEYE_ISO_SMILES>
COC1=CC(=C(C(=C1)OC)C2C3=CCC4C(C3CC5(C2(C(=O)N(C5=O)C6=C(C(=C(C(=C6F)F)F)F)F)Cl)Cl)C(=O)N(C4=O)C7=CC=C(C=C7)Br)O

> <PUBCHEM_CACTVS_TPSA>
113

> <PUBCHEM_MONOISOTOPIC_WEIGHT>
813.99076

> <PUBCHEM_TOTAL_CHARGE>
0

> <PUBCHEM_HEAVY_ATOM_COUNT>
51

> <PUBCHEM_ATOM_DEF_STEREO_COUNT>
0

> <PUBCHEM_ATOM_UDEF_STEREO_COUNT>
6

> <PUBCHEM_BOND_DEF_STEREO_COUNT>
0

> <PUBCHEM_BOND_UDEF_STEREO_COUNT>
0

> <PUBCHEM_ISOTOPIC_ATOM_COUNT>
0

> <PUBCHEM_COMPONENT_COUNT>
1

> <PUBCHEM_CACTVS_TAUTO_COUNT>
12

> <PUBCHEM_COORDINATE_TYPE>
1

> <PUBCHEM_BONDANNOTATIONS>
18  22  3

$$$$
3437639
  CDK     1110141352

 73 79  0  0  0  0  0  0  0  0999 V2000
    9.5972   -6.3334    0.0000 Br  0  0  0  0  0  0  0  0  0  0  0  0
    8.9282    0.7944    0.0000 Cl  0  0  0  0  0  0  0  0  0  0  0  0
    6.3301    2.2944    0.0000 Cl  0  0  0  0  0  0  0  0  0  0  0  0
   10.3941    2.8693    0.0000 F   0  0  0  0  0  0  0  0  0  0  0  0
    7.3941    4.6013    0.0000 F   0  0  0  0  0  0  0  0  0  0  0  0
    8.3941    6.3334    0.0000 F   0  0  0  0  0  0  0  0  0  0  0  0
   11.3941    4.6013    0.0000 F   0  0  0  0  0  0  0  0  0  0  0  0
   10.3941    6.3334    0.0000 F   0  0  0  0  0  0  0  0  0  0  0  0
    9.7777    1.7553    0.0000 O   0  0  0  0  0  0  0  0  0  0  0  0
    7.1991    3.7447    0.0000 O   0  0  0  0  0  0  0  0  0  0  0  0
    8.9621   -1.7222    0.0000 O   0  0  0  0  0  0  0  0  0  0  0  0
    5.8778   -3.5348    0.0000 O   0  0  0  0  0  0  0  0  0  0  0  0
    5.9641    3.6604    0.0000 O   0  0  0  0  0  0  0  0  0  0  0  0
    4.5981    0.2944    0.0000 O   0  0  0  0  0  0  0  0  0  0  0  0
    2.8660    3.2944    0.0000 O   0  0  0  0  0  0  0  0  0  0  0  0
    8.3941    2.8693    0.0000 N   0  0  0  0  0  0  0  0  0  0  0  0
    7.5706   -2.8848    0.0000 N   0  0  0  0  0  0  0  0  0  0  0  0
    7.1962   -0.2056    0.0000 C   0  0  3  0  0  0  0  0  0  0  0  0
    7.2122   -1.2471    0.0000 C   0  0  3  0  0  0  0  0  0  0  0  0
    8.0622    1.2944    0.0000 C   0  0  3  0  0  0  0  0  0  0  0  0
    7.1962    1.7944    0.0000 C   0  0  3  0  0  0  0  0  0  0  0  0
    8.0622    0.2944    0.0000 C   0  0  0  0  0  0  0  0  0  0  0  0
    6.3301    1.2944    0.0000 C   0  0  3  0  0  0  0  0  0  0  0  0
    6.3301    0.2944    0.0000 C   0  0  0  0  0  0  0  0  0  0  0  0
    6.3142   -1.7748    0.0000 C   0  0  3  0  0  0  0  0  0  0  0  0
    5.4121   -1.2540    0.0000 C   0  0  0  0  0  0  0  0  0  0  0  0
    5.4201   -0.2124    0.0000 C   0  0  0  0  0  0  0  0  0  0  0  0
    8.7992    1.9615    0.0000 C   0  0  0  0  0  0  0  0  0  0  0  0
    7.4054    2.7662    0.0000 C   0  0  0  0  0  0  0  0  0  0  0  0
    7.9852   -1.9360    0.0000 C   0  0  0  0  0  0  0  0  0  0  0  0
    6.5399   -2.7854    0.0000 C   0  0  0  0  0  0  0  0  0  0  0  0
    5.4641    1.7944    0.0000 C   0  0  0  0  0  0  0  0  0  0  0  0
    5.4641    2.7944    0.0000 C   0  0  0  0  0  0  0  0  0  0  0  0
    4.5981    1.2944    0.0000 C   0  0  0  0  0  0  0  0  0  0  0  0
    8.8941    3.7353    0.0000 C   0  0  0  0  0  0  0  0  0  0  0  0
    8.0772   -3.7470    0.0000 C   0  0  0  0  0  0  0  0  0  0  0  0
    4.5981    3.2944    0.0000 C   0  0  0  0  0  0  0  0  0  0  0  0
    3.7320    1.7944    0.0000 C   0  0  0  0  0  0  0  0  0  0  0  0
    9.8941    3.7353    0.0000 C   0  0  0  0  0  0  0  0  0  0  0  0
    8.3941    4.6013    0.0000 C   0  0  0  0  0  0  0  0  0  0  0  0
    3.7320    2.7944    0.0000 C   0  0  0  0  0  0  0  0  0  0  0  0
    7.5839   -4.6168    0.0000 C   0  0  0  0  0  0  0  0  0  0  0  0
    9.0772   -3.7392    0.0000 C   0  0  0  0  0  0  0  0  0  0  0  0
    8.8941    5.4674    0.0000 C   0  0  0  0  0  0  0  0  0  0  0  0
   10.3941    4.6013    0.0000 C   0  0  0  0  0  0  0  0  0  0  0  0
    8.0906   -5.4790    0.0000 C   0  0  0  0  0  0  0  0  0  0  0  0
    9.5839   -4.6014    0.0000 C   0  0  0  0  0  0  0  0  0  0  0  0
    5.4641    4.5265    0.0000 C   0  0  0  0  0  0  0  0  0  0  0  0
    9.8941    5.4674    0.0000 C   0  0  0  0  0  0  0  0  0  0  0  0
    9.0906   -5.4712    0.0000 C   0  0  0  0  0  0  0  0  0  0  0  0
    2.0000    2.7944    0.0000 C   0  0  0  0  0  0  0  0  0  0  0  0
    7.7355   -0.5114    0.0000 H   0  0  0  0  0  0  0  0  0  0  0  0
    7.7760   -0.9891    0.0000 H   0  0  0  0  0  0  0  0  0  0  0  0
    8.2742   -0.2882    0.0000 H   0  0  0  0  0  0  0  0  0  0  0  0
    8.6728    0.4021    0.0000 H   0  0  0  0  0  0  0  0  0  0  0  0
    5.7932    0.9844    0.0000 H   0  0  0  0  0  0  0  0  0  0  0  0
    5.8145   -2.1418    0.0000 H   0  0  0  0  0  0  0  0  0  0  0  0
    4.8021   -1.1432    0.0000 H   0  0  0  0  0  0  0  0  0  0  0  0
    5.1986   -1.8361    0.0000 H   0  0  0  0  0  0  0  0  0  0  0  0
    4.8868    0.1038    0.0000 H   0  0  0  0  0  0  0  0  0  0  0  0
    4.5981    3.9144    0.0000 H   0  0  0  0  0  0  0  0  0  0  0  0
    3.1951    1.4844    0.0000 H   0  0  0  0  0  0  0  0  0  0  0  0
    6.9639   -4.6216    0.0000 H   0  0  0  0  0  0  0  0  0  0  0  0
    9.3831   -3.1999    0.0000 H   0  0  0  0  0  0  0  0  0  0  0  0
    4.0611   -0.0156    0.0000 H   0  0  0  0  0  0  0  0  0  0  0  0
    7.7847   -6.0183    0.0000 H   0  0  0  0  0  0  0  0  0  0  0  0
   10.2038   -4.5966    0.0000 H   0  0  0  0  0  0  0  0  0  0  0  0
    6.0010    4.8365    0.0000 H   0  0  0  0  0  0  0  0  0  0  0  0
    5.1541    5.0634    0.0000 H   0  0  0  0  0  0  0  0  0  0  0  0
    4.9272    4.2165    0.0000 H   0  0  0  0  0  0  0  0  0  0  0  0
    1.6900    3.3314    0.0000 H   0  0  0  0  0  0  0  0  0  0  0  0
    1.4631    2.4844    0.0000 H   0  0  0  0  0  0  0  0  0  0  0  0
    2.3100    2.2575    0.0000 H   0  0  0  0  0  0  0  0  0  0  0  0
  1 50  1  0  0  0  0 
  2 20  1  0  0  0  0 
  3 21  1  0  0  0  0 
  4 39  1  0  0  0  0 
  5 40  1  0  0  0  0 
  6 44  1  0  0  0  0 
  7 45  1  0  0  0  0 
  8 49  1  0  0  0  0 
  9 28  2  0  0  0  0 
 10 29  2  0  0  0  0 
 11 30  2  0  0  0  0 
 12 31  2  0  0  0  0 
 13 33  1  0  0  0  0 
 13 48  1  0  0  0  0 
 14 34  1  0  0  0  0 
 14 65  1  0  0  0  0 
 15 41  1  0  0  0  0 
 15 51  1  0  0  0  0 
 16 28  1  0  0  0  0 
 16 29  1  0  0  0  0 
 16 35  1  0  0  0  0 
 17 30  1  0  0  0  0 
 17 31  1  0  0  0  0 
 17 36  1  0  0  0  0 
 18 19  1  0  0  0  0 
 18 22  1  0  0  0  0 
 18 24  1  0  0  0  0 
 18 52  1  0  0  0  0 
 19 25  1  0  0  0  0 
 19 30  1  0  0  0  0 
 19 53  1  0  0  0  0 
 20 21  1  0  0  0  0 
 20 22  1  0  0  0  0 
 20 28  1  0  0  0  0 
 21 23  1  0  0  0  0 
 21 29  1  0  0  0  0 
 22 54  1  0  0  0  0 
 22 55  1  0  0  0  0 
 23 24  1  0  0  0  0 
 23 32  1  0  0  0  0 
 23 56  1  0  0  0  0 
 24 27  2  0  0  0  0 
 25 26  1  0  0  0  0 
 25 31  1  0  0  0  0 
 25 57  1  0  0  0  0 
 26 27  1  0  0  0  0 
 26 58  1  0  0  0  0 
 26 59  1  0  0  0  0 
 27 60  1  0  0  0  0 
 32 33  1  0  0  0  0 
 32 34  2  0  0  0  0 
 33 37  2  0  0  0  0 
 34 38  1  0  0  0  0 
 35 39  2  0  0  0  0 
 35 40  1  0  0  0  0 
 36 42  2  0  0  0  0 
 36 43  1  0  0  0  0 
 37 41  1  0  0  0  0 
 37 61  1  0  0  0  0 
 38 41  2  0  0  0  0 
 38 62  1  0  0  0  0 
 39 45  1  0  0  0  0 
 40 44  2  0  0  0  0 
 42 46  1  0  0  0  0 
 42 63  1  0  0  0  0 
 43 47  2  0  0  0  0 
 43 64  1  0  0  0  0 
 44 49  1  0  0  0  0 
 45 49  2  0  0  0  0 
 46 50  2  0  0  0  0 
 46 66  1  0  0  0  0 
 47 50  1  0  0  0  0 
 47 67  1  0  0  0  0 
 48 68  1  0  0  0  0 
 48 69  1  0  0  0  0 
 48 70  1  0  0  0  0 
 51 71  1  0  0  0  0 
 51 72  1  0  0  0  0 
 51 73  1  0  0  0  0 
M  END
> <cdk:Title>
3437639

> <cdk:Remark>
null

> <PUBCHEM_COMPOUND_CID>
3437639

> <PUBCHEM_COMPOUND_CANONICALIZED>
1

> <PUBCHEM_CACTVS_COMPLEXITY>
1490

> <PUBCHEM_CACTVS_HBOND_ACCEPTOR>
12

> <PUBCHEM_CACTVS_HBOND_DONOR>
1

> <PUBCHEM_CACTVS_ROTATABLE_BOND>
5

> <PUBCHEM_CACTVS_SUBSKEYS>
AAADceB/OcAGEAAAAAAAAAAAAAAAAWLAAAAwYMGCAAAAAFiBUAAAHwJACAABrQ6BmAoyxoMABgCIAiVSUACCCAAhIgQIiEEGbqhMJzLHsZvEcChlxDXI+hed/P7OoAAgCAAIAADIAERQADIACAAAAAAAAA==

> <PUBCHEM_IUPAC_OPENEYE_NAME>
2-(4-bromophenyl)-6a,9a-dichloro-6-(2-hydroxy-4,6-dimethoxy-phenyl)-8-(2,3,4,5,6-pentafluorophenyl)-3a,4,6,10,10a,10b-hexahydroisoindolo[5,6-e]isoindole-1,3,7,9-tetrone

> <PUBCHEM_IUPAC_CAS_NAME>
2-(4-bromophenyl)-6a,9a-dichloro-6-(2-hydroxy-4,6-dimethoxyphenyl)-8-(2,3,4,5,6-pentafluorophenyl)-3a,4,6,10,10a,10b-hexahydroisoindolo[5,6-e]isoindole-1,3,7,9-tetrone

> <PUBCHEM_IUPAC_NAME>
2-(4-bromophenyl)-6a,9a-dichloro-6-(2-hydroxy-4,6-dimethoxyphenyl)-8-(2,3,4,5,6-pentafluorophenyl)-3a,4,6,10,10a,10b-hexahydroisoindolo[5,6-e]isoindole-1,3,7,9-tetrone

> <PUBCHEM_IUPAC_SYSTEMATIC_NAME>
2-(4-bromophenyl)-6a,9a-bis(chloranyl)-6-(2,4-dimethoxy-6-oxidanyl-phenyl)-8-[2,3,4,5,6-pentakis(fluoranyl)phenyl]-3a,4,6,10,10a,10b-hexahydroisoindolo[5,6-e]isoindole-1,3,7,9-tetrone

> <PUBCHEM_IUPAC_TRADITIONAL_NAME>
2-(4-bromophenyl)-6a,9a-dichloro-6-(2-hydroxy-4,6-dimethoxy-phenyl)-8-(2,3,4,5,6-pentafluorophenyl)-3a,4,6,10,10a,10b-hexahydroisoindol[5,6-e]isoindole-1,3,7,9-diquinone

> <PUBCHEM_IUPAC_INCHI>
InChI=1S/C34H22BrCl2F5N2O7/c1-50-14-9-18(45)21(19(10-14)51-2)22-15-7-8-16-20(30(47)43(29(16)46)13-5-3-12(35)4-6-13)17(15)11-33(36)31(48)44(32(49)34(22,33)37)28-26(41)24(39)23(38)25(40)27(28)42/h3-7,9-10,16-17,20,22,45H,8,11H2,1-2H3

> <PUBCHEM_IUPAC_INCHIKEY>
WVPFSJGNDPSOEC-UHFFFAOYSA-N

> <PUBCHEM_XLOGP3_AA>
5.5

> <PUBCHEM_EXACT_MASS>
813.99076

> <PUBCHEM_MOLECULAR_FORMULA>
C34H22BrCl2F5N2O7

> <PUBCHEM_MOLECULAR_WEIGHT>
816.349696

> <PUBCHEM_OPENEYE_CAN_SMILES>
COC1=CC(=C(C(=C1)OC)C2C3=CCC4C(C3CC5(C2(C(=O)N(C5=O)C6=C(C(=C(C(=C6F)F)F)F)F)Cl)Cl)C(=O)N(C4=O)C7=CC=C(C=C7)Br)O

> <PUBCHEM_OPENEYE_ISO_SMILES>
COC1=CC(=C(C(=C1)OC)C2C3=CCC4C(C3CC5(C2(C(=O)N(C5=O)C6=C(C(=C(C(=C6F)F)F)F)F)Cl)Cl)C(=O)N(C4=O)C7=CC=C(C=C7)Br)O

> <PUBCHEM_CACTVS_TPSA>
113

> <PUBCHEM_MONOISOTOPIC_WEIGHT>
813.99076

> <PUBCHEM_TOTAL_CHARGE>
0

> <PUBCHEM_HEAVY_ATOM_COUNT>
51

> <PUBCHEM_ATOM_DEF_STEREO_COUNT>
0

> <PUBCHEM_ATOM_UDEF_STEREO_COUNT>
6

> <PUBCHEM_BOND_DEF_STEREO_COUNT>
0

> <PUBCHEM_BOND_UDEF_STEREO_COUNT>
0

> <PUBCHEM_ISOTOPIC_ATOM_COUNT>
0

> <PUBCHEM_COMPONENT_COUNT>
1

> <PUBCHEM_CACTVS_TAUTO_COUNT>
12

> <PUBCHEM_COORDINATE_TYPE>
1

> <PUBCHEM_BONDANNOTATIONS>
18  22  3

$$$$
3437639
  CDK     1110141358

 73 79  0  0  0  0  0  0  0  0999 V2000
    9.5972   -6.3334    0.0000 Br  0  0  0  0  0  0  0  0  0  0  0  0
    8.9282    0.7944    0.0000 Cl  0  0  0  0  0  0  0  0  0  0  0  0
    6.3301    2.2944    0.0000 Cl  0  0  0  0  0  0  0  0  0  0  0  0
   10.3941    2.8693    0.0000 F   0  0  0  0  0  0  0  0  0  0  0  0
    7.3941    4.6013    0.0000 F   0  0  0  0  0  0  0  0  0  0  0  0
    8.3941    6.3334    0.0000 F   0  0  0  0  0  0  0  0  0  0  0  0
   11.3941    4.6013    0.0000 F   0  0  0  0  0  0  0  0  0  0  0  0
   10.3941    6.3334    0.0000 F   0  0  0  0  0  0  0  0  0  0  0  0
    9.7777    1.7553    0.0000 O   0  0  0  0  0  0  0  0  0  0  0  0
    7.1991    3.7447    0.0000 O   0  0  0  0  0  0  0  0  0  0  0  0
    8.9621   -1.7222    0.0000 O   0  0  0  0  0  0  0  0  0  0  0  0
    5.8778   -3.5348    0.0000 O   0  0  0  0  0  0  0  0  0  0  0  0
    5.9641    3.6604    0.0000 O   0  0  0  0  0  0  0  0  0  0  0  0
    4.5981    0.2944    0.0000 O   0  0  0  0  0  0  0  0  0  0  0  0
    2.8660    3.2944    0.0000 O   0  0  0  0  0  0  0  0  0  0  0  0
    8.3941    2.8693    0.0000 N   0  0  0  0  0  0  0  0  0  0  0  0
    7.5706   -2.8848    0.0000 N   0  0  0  0  0  0  0  0  0  0  0  0
    7.1962   -0.2056    0.0000 C   0  0  3  0  0  0  0  0  0  0  0  0
    7.2122   -1.2471    0.0000 C   0  0  3  0  0  0  0  0  0  0  0  0
    8.0622    1.2944    0.0000 C   0  0  3  0  0  0  0  0  0  0  0  0
    7.1962    1.7944    0.0000 C   0  0  3  0  0  0  0  0  0  0  0  0
    8.0622    0.2944    0.0000 C   0  0  0  0  0  0  0  0  0  0  0  0
    6.3301    1.2944    0.0000 C   0  0  3  0  0  0  0  0  0  0  0  0
    6.3301    0.2944    0.0000 C   0  0  0  0  0  0  0  0  0  0  0  0
    6.3142   -1.7748    0.0000 C   0  0  3  0  0  0  0  0  0  0  0  0
    5.4121   -1.2540    0.0000 C   0  0  0  0  0  0  0  0  0  0  0  0
    5.4201   -0.2124    0.0000 C   0  0  0  0  0  0  0  0  0  0  0  0
    8.7992    1.9615    0.0000 C   0  0  0  0  0  0  0  0  0  0  0  0
    7.4054    2.7662    0.0000 C   0  0  0  0  0  0  0  0  0  0  0  0
    7.9852   -1.9360    0.0000 C   0  0  0  0  0  0  0  0  0  0  0  0
    6.5399   -2.7854    0.0000 C   0  0  0  0  0  0  0  0  0  0  0  0
    5.4641    1.7944    0.0000 C   0  0  0  0  0  0  0  0  0  0  0  0
    5.4641    2.7944    0.0000 C   0  0  0  0  0  0  0  0  0  0  0  0
    4.5981    1.2944    0.0000 C   0  0  0  0  0  0  0  0  0  0  0  0
    8.8941    3.7353    0.0000 C   0  0  0  0  0  0  0  0  0  0  0  0
    8.0772   -3.7470    0.0000 C   0  0  0  0  0  0  0  0  0  0  0  0
    4.5981    3.2944    0.0000 C   0  0  0  0  0  0  0  0  0  0  0  0
    3.7320    1.7944    0.0000 C   0  0  0  0  0  0  0  0  0  0  0  0
    9.8941    3.7353    0.0000 C   0  0  0  0  0  0  0  0  0  0  0  0
    8.3941    4.6013    0.0000 C   0  0  0  0  0  0  0  0  0  0  0  0
    3.7320    2.7944    0.0000 C   0  0  0  0  0  0  0  0  0  0  0  0
    7.5839   -4.6168    0.0000 C   0  0  0  0  0  0  0  0  0  0  0  0
    9.0772   -3.7392    0.0000 C   0  0  0  0  0  0  0  0  0  0  0  0
    8.8941    5.4674    0.0000 C   0  0  0  0  0  0  0  0  0  0  0  0
   10.3941    4.6013    0.0000 C   0  0  0  0  0  0  0  0  0  0  0  0
    8.0906   -5.4790    0.0000 C   0  0  0  0  0  0  0  0  0  0  0  0
    9.5839   -4.6014    0.0000 C   0  0  0  0  0  0  0  0  0  0  0  0
    5.4641    4.5265    0.0000 C   0  0  0  0  0  0  0  0  0  0  0  0
    9.8941    5.4674    0.0000 C   0  0  0  0  0  0  0  0  0  0  0  0
    9.0906   -5.4712    0.0000 C   0  0  0  0  0  0  0  0  0  0  0  0
    2.0000    2.7944    0.0000 C   0  0  0  0  0  0  0  0  0  0  0  0
    7.7355   -0.5114    0.0000 H   0  0  0  0  0  0  0  0  0  0  0  0
    7.7760   -0.9891    0.0000 H   0  0  0  0  0  0  0  0  0  0  0  0
    8.2742   -0.2882    0.0000 H   0  0  0  0  0  0  0  0  0  0  0  0
    8.6728    0.4021    0.0000 H   0  0  0  0  0  0  0  0  0  0  0  0
    5.7932    0.9844    0.0000 H   0  0  0  0  0  0  0  0  0  0  0  0
    5.8145   -2.1418    0.0000 H   0  0  0  0  0  0  0  0  0  0  0  0
    4.8021   -1.1432    0.0000 H   0  0  0  0  0  0  0  0  0  0  0  0
    5.1986   -1.8361    0.0000 H   0  0  0  0  0  0  0  0  0  0  0  0
    4.8868    0.1038    0.0000 H   0  0  0  0  0  0  0  0  0  0  0  0
    4.5981    3.9144    0.0000 H   0  0  0  0  0  0  0  0  0  0  0  0
    3.1951    1.4844    0.0000 H   0  0  0  0  0  0  0  0  0  0  0  0
    6.9639   -4.6216    0.0000 H   0  0  0  0  0  0  0  0  0  0  0  0
    9.3831   -3.1999    0.0000 H   0  0  0  0  0  0  0  0  0  0  0  0
    4.0611   -0.0156    0.0000 H   0  0  0  0  0  0  0  0  0  0  0  0
    7.7847   -6.0183    0.0000 H   0  0  0  0  0  0  0  0  0  0  0  0
   10.2038   -4.5966    0.0000 H   0  0  0  0  0  0  0  0  0  0  0  0
    6.0010    4.8365    0.0000 H   0  0  0  0  0  0  0  0  0  0  0  0
    5.1541    5.0634    0.0000 H   0  0  0  0  0  0  0  0  0  0  0  0
    4.9272    4.2165    0.0000 H   0  0  0  0  0  0  0  0  0  0  0  0
    1.6900    3.3314    0.0000 H   0  0  0  0  0  0  0  0  0  0  0  0
    1.4631    2.4844    0.0000 H   0  0  0  0  0  0  0  0  0  0  0  0
    2.3100    2.2575    0.0000 H   0  0  0  0  0  0  0  0  0  0  0  0
  1 50  1  0  0  0  0 
  2 20  1  0  0  0  0 
  3 21  1  0  0  0  0 
  4 39  1  0  0  0  0 
  5 40  1  0  0  0  0 
  6 44  1  0  0  0  0 
  7 45  1  0  0  0  0 
  8 49  1  0  0  0  0 
  9 28  2  0  0  0  0 
 10 29  2  0  0  0  0 
 11 30  2  0  0  0  0 
 12 31  2  0  0  0  0 
 13 33  1  0  0  0  0 
 13 48  1  0  0  0  0 
 14 34  1  0  0  0  0 
 14 65  1  0  0  0  0 
 15 41  1  0  0  0  0 
 15 51  1  0  0  0  0 
 16 28  1  0  0  0  0 
 16 29  1  0  0  0  0 
 16 35  1  0  0  0  0 
 17 30  1  0  0  0  0 
 17 31  1  0  0  0  0 
 17 36  1  0  0  0  0 
 18 19  1  0  0  0  0 
 18 22  1  0  0  0  0 
 18 24  1  0  0  0  0 
 18 52  1  0  0  0  0 
 19 25  1  0  0  0  0 
 19 30  1  0  0  0  0 
 19 53  1  0  0  0  0 
 20 21  1  0  0  0  0 
 20 22  1  0  0  0  0 
 20 28  1  0  0  0  0 
 21 23  1  0  0  0  0 
 21 29  1  0  0  0  0 
 22 54  1  0  0  0  0 
 22 55  1  0  0  0  0 
 23 24  1  0  0  0  0 
 23 32  1  0  0  0  0 
 23 56  1  0  0  0  0 
 24 27  2  0  0  0  0 
 25 26  1  0  0  0  0 
 25 31  1  0  0  0  0 
 25 57  1  0  0  0  0 
 26 27  1  0  0  0  0 
 26 58  1  0  0  0  0 
 26 59  1  0  0  0  0 
 27 60  1  0  0  0  0 
 32 33  1  0  0  0  0 
 32 34  2  0  0  0  0 
 33 37  2  0  0  0  0 
 34 38  1  0  0  0  0 
 35 39  2  0  0  0  0 
 35 40  1  0  0  0  0 
 36 42  2  0  0  0  0 
 36 43  1  0  0  0  0 
 37 41  1  0  0  0  0 
 37 61  1  0  0  0  0 
 38 41  2  0  0  0  0 
 38 62  1  0  0  0  0 
 39 45  1  0  0  0  0 
 40 44  2  0  0  0  0 
 42 46  1  0  0  0  0 
 42 63  1  0  0  0  0 
 43 47  2  0  0  0  0 
 43 64  1  0  0  0  0 
 44 49  1  0  0  0  0 
 45 49  2  0  0  0  0 
 46 50  2  0  0  0  0 
 46 66  1  0  0  0  0 
 47 50  1  0  0  0  0 
 47 67  1  0  0  0  0 
 48 68  1  0  0  0  0 
 48 69  1  0  0  0  0 
 48 70  1  0  0  0  0 
 51 71  1  0  0  0  0 
 51 72  1  0  0  0  0 
 51 73  1  0  0  0  0 
M  END
> <cdk:Title>
3437639

> <cdk:Remark>
null

> <PUBCHEM_COMPOUND_CID>
3437639

> <PUBCHEM_COMPOUND_CANONICALIZED>
1

> <PUBCHEM_CACTVS_COMPLEXITY>
1490

> <PUBCHEM_CACTVS_HBOND_ACCEPTOR>
12

> <PUBCHEM_CACTVS_HBOND_DONOR>
1

> <PUBCHEM_CACTVS_ROTATABLE_BOND>
5

> <PUBCHEM_CACTVS_SUBSKEYS>
AAADceB/OcAGEAAAAAAAAAAAAAAAAWLAAAAwYMGCAAAAAFiBUAAAHwJACAABrQ6BmAoyxoMABgCIAiVSUACCCAAhIgQIiEEGbqhMJzLHsZvEcChlxDXI+hed/P7OoAAgCAAIAADIAERQADIACAAAAAAAAA==

> <PUBCHEM_IUPAC_OPENEYE_NAME>
2-(4-bromophenyl)-6a,9a-dichloro-6-(2-hydroxy-4,6-dimethoxy-phenyl)-8-(2,3,4,5,6-pentafluorophenyl)-3a,4,6,10,10a,10b-hexahydroisoindolo[5,6-e]isoindole-1,3,7,9-tetrone

> <PUBCHEM_IUPAC_CAS_NAME>
2-(4-bromophenyl)-6a,9a-dichloro-6-(2-hydroxy-4,6-dimethoxyphenyl)-8-(2,3,4,5,6-pentafluorophenyl)-3a,4,6,10,10a,10b-hexahydroisoindolo[5,6-e]isoindole-1,3,7,9-tetrone

> <PUBCHEM_IUPAC_NAME>
2-(4-bromophenyl)-6a,9a-dichloro-6-(2-hydroxy-4,6-dimethoxyphenyl)-8-(2,3,4,5,6-pentafluorophenyl)-3a,4,6,10,10a,10b-hexahydroisoindolo[5,6-e]isoindole-1,3,7,9-tetrone

> <PUBCHEM_IUPAC_SYSTEMATIC_NAME>
2-(4-bromophenyl)-6a,9a-bis(chloranyl)-6-(2,4-dimethoxy-6-oxidanyl-phenyl)-8-[2,3,4,5,6-pentakis(fluoranyl)phenyl]-3a,4,6,10,10a,10b-hexahydroisoindolo[5,6-e]isoindole-1,3,7,9-tetrone

> <PUBCHEM_IUPAC_TRADITIONAL_NAME>
2-(4-bromophenyl)-6a,9a-dichloro-6-(2-hydroxy-4,6-dimethoxy-phenyl)-8-(2,3,4,5,6-pentafluorophenyl)-3a,4,6,10,10a,10b-hexahydroisoindol[5,6-e]isoindole-1,3,7,9-diquinone

> <PUBCHEM_IUPAC_INCHI>
InChI=1S/C34H22BrCl2F5N2O7/c1-50-14-9-18(45)21(19(10-14)51-2)22-15-7-8-16-20(30(47)43(29(16)46)13-5-3-12(35)4-6-13)17(15)11-33(36)31(48)44(32(49)34(22,33)37)28-26(41)24(39)23(38)25(40)27(28)42/h3-7,9-10,16-17,20,22,45H,8,11H2,1-2H3

> <PUBCHEM_IUPAC_INCHIKEY>
WVPFSJGNDPSOEC-UHFFFAOYSA-N

> <PUBCHEM_XLOGP3_AA>
5.5

> <PUBCHEM_EXACT_MASS>
813.99076

> <PUBCHEM_MOLECULAR_FORMULA>
C34H22BrCl2F5N2O7

> <PUBCHEM_MOLECULAR_WEIGHT>
816.349696

> <PUBCHEM_OPENEYE_CAN_SMILES>
COC1=CC(=C(C(=C1)OC)C2C3=CCC4C(C3CC5(C2(C(=O)N(C5=O)C6=C(C(=C(C(=C6F)F)F)F)F)Cl)Cl)C(=O)N(C4=O)C7=CC=C(C=C7)Br)O

> <PUBCHEM_OPENEYE_ISO_SMILES>
COC1=CC(=C(C(=C1)OC)C2C3=CCC4C(C3CC5(C2(C(=O)N(C5=O)C6=C(C(=C(C(=C6F)F)F)F)F)Cl)Cl)C(=O)N(C4=O)C7=CC=C(C=C7)Br)O

> <PUBCHEM_CACTVS_TPSA>
113

> <PUBCHEM_MONOISOTOPIC_WEIGHT>
813.99076

> <PUBCHEM_TOTAL_CHARGE>
0

> <PUBCHEM_HEAVY_ATOM_COUNT>
51

> <PUBCHEM_ATOM_DEF_STEREO_COUNT>
0

> <PUBCHEM_ATOM_UDEF_STEREO_COUNT>
6

> <PUBCHEM_BOND_DEF_STEREO_COUNT>
0

> <PUBCHEM_BOND_UDEF_STEREO_COUNT>
0

> <PUBCHEM_ISOTOPIC_ATOM_COUNT>
0

> <PUBCHEM_COMPONENT_COUNT>
1

> <PUBCHEM_CACTVS_TAUTO_COUNT>
12

> <PUBCHEM_COORDINATE_TYPE>
1

> <PUBCHEM_BONDANNOTATIONS>
18  22  3

$$$$
