41641047
  CDK     1110140953

 58 60  0  0  0  0  0  0  0  0999 V2000
    3.7320   -0.6817    0.0000 S   0  0  0  0  0  0  0  0  0  0  0  0
    3.2320    0.1843    0.0000 O   0  0  0  0  0  0  0  0  0  0  0  0
    4.2320   -1.5477    0.0000 O   0  0  0  0  0  0  0  0  0  0  0  0
   10.8600    0.3183    0.0000 O   0  0  0  0  0  0  0  0  0  0  0  0
    7.2764    1.1230    0.0000 N   0  0  0  0  0  0  0  0  0  0  0  0
    7.2764   -0.4864    0.0000 N   0  0  0  0  0  0  0  0  0  0  0  0
    2.8660   -1.1817    0.0000 N   0  0  0  0  0  0  0  0  0  0  0  0
   10.8600   -1.4138    0.0000 N   0  0  0  0  0  0  0  0  0  0  0  0
    6.3301    0.8183    0.0000 C   0  0  0  0  0  0  0  0  0  0  0  0
    7.8600    0.3183    0.0000 C   0  0  0  0  0  0  0  0  0  0  0  0
    6.3301   -0.1817    0.0000 C   0  0  0  0  0  0  0  0  0  0  0  0
    8.8600    0.3183    0.0000 C   0  0  0  0  0  0  0  0  0  0  0  0
    7.5870    2.0736    0.0000 C   0  0  0  0  0  0  0  0  0  0  0  0
    4.5981   -0.1817    0.0000 C   0  0  0  0  0  0  0  0  0  0  0  0
    5.4641   -0.6817    0.0000 C   0  0  0  0  0  0  0  0  0  0  0  0
    5.4641    1.3183    0.0000 C   0  0  0  0  0  0  0  0  0  0  0  0
    9.3600   -0.5477    0.0000 C   0  0  0  0  0  0  0  0  0  0  0  0
    4.5981    0.8183    0.0000 C   0  0  0  0  0  0  0  0  0  0  0  0
    8.5655    2.2798    0.0000 C   0  0  0  0  0  0  0  0  0  0  0  0
   10.3600   -0.5477    0.0000 C   0  0  0  0  0  0  0  0  0  0  0  0
    2.0000   -0.6817    0.0000 C   0  0  0  0  0  0  0  0  0  0  0  0
    2.8660   -2.1817    0.0000 C   0  0  0  0  0  0  0  0  0  0  0  0
   11.8600   -1.4138    0.0000 C   0  0  0  0  0  0  0  0  0  0  0  0
   13.8600   -1.4138    0.0000 C   0  0  0  0  0  0  0  0  0  0  0  0
   12.3600   -2.2798    0.0000 C   0  0  0  0  0  0  0  0  0  0  0  0
   12.3600   -0.5477    0.0000 C   0  0  0  0  0  0  0  0  0  0  0  0
   13.3600   -2.2798    0.0000 C   0  0  0  0  0  0  0  0  0  0  0  0
   13.3600   -0.5477    0.0000 C   0  0  0  0  0  0  0  0  0  0  0  0
   14.8600   -1.4138    0.0000 C   0  0  0  0  0  0  0  0  0  0  0  0
   15.3600   -2.2798    0.0000 C   0  0  0  0  0  0  0  0  0  0  0  0
    9.4426    0.5304    0.0000 H   0  0  0  0  0  0  0  0  0  0  0  0
    8.7523    0.9289    0.0000 H   0  0  0  0  0  0  0  0  0  0  0  0
    7.5664    2.6932    0.0000 H   0  0  0  0  0  0  0  0  0  0  0  0
    6.9732    2.1609    0.0000 H   0  0  0  0  0  0  0  0  0  0  0  0
    5.4641   -1.3017    0.0000 H   0  0  0  0  0  0  0  0  0  0  0  0
    5.4641    1.9383    0.0000 H   0  0  0  0  0  0  0  0  0  0  0  0
    8.7774   -0.7598    0.0000 H   0  0  0  0  0  0  0  0  0  0  0  0
    9.4676   -1.1583    0.0000 H   0  0  0  0  0  0  0  0  0  0  0  0
    4.0611    1.1283    0.0000 H   0  0  0  0  0  0  0  0  0  0  0  0
    8.6934    1.6731    0.0000 H   0  0  0  0  0  0  0  0  0  0  0  0
    9.1722    2.4076    0.0000 H   0  0  0  0  0  0  0  0  0  0  0  0
    8.4377    2.8864    0.0000 H   0  0  0  0  0  0  0  0  0  0  0  0
   10.5500   -1.9507    0.0000 H   0  0  0  0  0  0  0  0  0  0  0  0
    2.2460   -2.1817    0.0000 H   0  0  0  0  0  0  0  0  0  0  0  0
    2.8660   -2.8017    0.0000 H   0  0  0  0  0  0  0  0  0  0  0  0
    3.4860   -2.1817    0.0000 H   0  0  0  0  0  0  0  0  0  0  0  0
    2.3100   -0.1448    0.0000 H   0  0  0  0  0  0  0  0  0  0  0  0
    1.4631   -0.3717    0.0000 H   0  0  0  0  0  0  0  0  0  0  0  0
    1.6900   -1.2186    0.0000 H   0  0  0  0  0  0  0  0  0  0  0  0
   12.0500   -2.8167    0.0000 H   0  0  0  0  0  0  0  0  0  0  0  0
   12.0500   -0.0108    0.0000 H   0  0  0  0  0  0  0  0  0  0  0  0
   13.6700   -2.8167    0.0000 H   0  0  0  0  0  0  0  0  0  0  0  0
   13.6700   -0.0108    0.0000 H   0  0  0  0  0  0  0  0  0  0  0  0
   15.4426   -1.2017    0.0000 H   0  0  0  0  0  0  0  0  0  0  0  0
   14.7523   -0.8032    0.0000 H   0  0  0  0  0  0  0  0  0  0  0  0
   14.8230   -2.5898    0.0000 H   0  0  0  0  0  0  0  0  0  0  0  0
   15.6700   -2.8167    0.0000 H   0  0  0  0  0  0  0  0  0  0  0  0
   15.8969   -1.9698    0.0000 H   0  0  0  0  0  0  0  0  0  0  0  0
  1  2  2  0  0  0  0 
  1  3  2  0  0  0  0 
  1  7  1  0  0  0  0 
  1 14  1  0  0  0  0 
  4 20  2  0  0  0  0 
  5  9  1  0  0  0  0 
  5 10  1  0  0  0  0 
  5 13  1  0  0  0  0 
  6 10  2  0  0  0  0 
  6 11  1  0  0  0  0 
  7 21  1  0  0  0  0 
  7 22  1  0  0  0  0 
  8 20  1  0  0  0  0 
  8 23  1  0  0  0  0 
  8 43  1  0  0  0  0 
  9 11  2  0  0  0  0 
  9 16  1  0  0  0  0 
 10 12  1  0  0  0  0 
 11 15  1  0  0  0  0 
 12 17  1  0  0  0  0 
 12 31  1  0  0  0  0 
 12 32  1  0  0  0  0 
 13 19  1  0  0  0  0 
 13 33  1  0  0  0  0 
 13 34  1  0  0  0  0 
 14 15  2  0  0  0  0 
 14 18  1  0  0  0  0 
 15 35  1  0  0  0  0 
 16 18  2  0  0  0  0 
 16 36  1  0  0  0  0 
 17 20  1  0  0  0  0 
 17 37  1  0  0  0  0 
 17 38  1  0  0  0  0 
 18 39  1  0  0  0  0 
 19 40  1  0  0  0  0 
 19 41  1  0  0  0  0 
 19 42  1  0  0  0  0 
 21 47  1  0  0  0  0 
 21 48  1  0  0  0  0 
 21 49  1  0  0  0  0 
 22 44  1  0  0  0  0 
 22 45  1  0  0  0  0 
 22 46  1  0  0  0  0 
 23 25  2  0  0  0  0 
 23 26  1  0  0  0  0 
 24 27  2  0  0  0  0 
 24 28  1  0  0  0  0 
 24 29  1  0  0  0  0 
 25 27  1  0  0  0  0 
 25 50  1  0  0  0  0 
 26 28  2  0  0  0  0 
 26 51  1  0  0  0  0 
 27 52  1  0  0  0  0 
 28 53  1  0  0  0  0 
 29 30  1  0  0  0  0 
 29 54  1  0  0  0  0 
 29 55  1  0  0  0  0 
 30 56  1  0  0  0  0 
 30 57  1  0  0  0  0 
 30 58  1  0  0  0  0 
M  END
> <cdk:Title>
41641047

> <cdk:Remark>
null

> <PUBCHEM_COMPOUND_CID>
41641047

> <PUBCHEM_COMPOUND_CANONICALIZED>
1

> <PUBCHEM_CACTVS_COMPLEXITY>
670

> <PUBCHEM_CACTVS_HBOND_ACCEPTOR>
5

> <PUBCHEM_CACTVS_HBOND_DONOR>
1

> <PUBCHEM_CACTVS_ROTATABLE_BOND>
8

> <PUBCHEM_CACTVS_SUBSKEYS>
AAADceB7sABAAAAAAAAAAAAAAAAAAWAAAAAwYAAAAAAAAFgB9AAAHgQQQAAADAjB3wQz0bfMEAKoAydydHDCgD0hEqAJ2Dk4dJiIaLLAmZGUIAxolALIyCcUgIAOCAQAACAAACAQCAAAQAAAQAAAAAAAAA==

> <PUBCHEM_IUPAC_OPENEYE_NAME>
3-[5-(dimethylsulfamoyl)-1-ethyl-benzimidazol-2-yl]-N-(4-ethylphenyl)propanamide

> <PUBCHEM_IUPAC_CAS_NAME>
3-[5-(dimethylsulfamoyl)-1-ethyl-2-benzimidazolyl]-N-(4-ethylphenyl)propanamide

> <PUBCHEM_IUPAC_NAME>
3-[5-(dimethylsulfamoyl)-1-ethylbenzimidazol-2-yl]-N-(4-ethylphenyl)propanamide

> <PUBCHEM_IUPAC_SYSTEMATIC_NAME>
3-[5-(dimethylsulfamoyl)-1-ethyl-benzimidazol-2-yl]-N-(4-ethylphenyl)propanamide

> <PUBCHEM_IUPAC_TRADITIONAL_NAME>
3-[5-(dimethylsulfamoyl)-1-ethyl-benzimidazol-2-yl]-N-(4-ethylphenyl)propionamide

> <PUBCHEM_IUPAC_INCHI>
InChI=1S/C22H28N4O3S/c1-5-16-7-9-17(10-8-16)23-22(27)14-13-21-24-19-15-18(30(28,29)25(3)4)11-12-20(19)26(21)6-2/h7-12,15H,5-6,13-14H2,1-4H3,(H,23,27)

> <PUBCHEM_IUPAC_INCHIKEY>
QDVUXSSQWVDNDX-UHFFFAOYSA-N

> <PUBCHEM_XLOGP3_AA>
2.8

> <PUBCHEM_EXACT_MASS>
428.188212

> <PUBCHEM_MOLECULAR_FORMULA>
C22H28N4O3S

> <PUBCHEM_MOLECULAR_WEIGHT>
428.54772

> <PUBCHEM_OPENEYE_CAN_SMILES>
CCC1=CC=C(C=C1)NC(=O)CCC2=NC3=C(N2CC)C=CC(=C3)S(=O)(=O)N(C)C

> <PUBCHEM_OPENEYE_ISO_SMILES>
CCC1=CC=C(C=C1)NC(=O)CCC2=NC3=C(N2CC)C=CC(=C3)S(=O)(=O)N(C)C

> <PUBCHEM_CACTVS_TPSA>
92.7

> <PUBCHEM_MONOISOTOPIC_WEIGHT>
428.188212

> <PUBCHEM_TOTAL_CHARGE>
0

> <PUBCHEM_HEAVY_ATOM_COUNT>
30

> <PUBCHEM_ATOM_DEF_STEREO_COUNT>
0

> <PUBCHEM_ATOM_UDEF_STEREO_COUNT>
0

> <PUBCHEM_BOND_DEF_STEREO_COUNT>
0

> <PUBCHEM_BOND_UDEF_STEREO_COUNT>
0

> <PUBCHEM_ISOTOPIC_ATOM_COUNT>
0

> <PUBCHEM_COMPONENT_COUNT>
1

> <PUBCHEM_CACTVS_TAUTO_COUNT>
6

> <PUBCHEM_COORDINATE_TYPE>
1

> <PUBCHEM_BONDANNOTATIONS>
11  15  8

$$$$
41641047
  CDK     1110141344

 58 60  0  0  0  0  0  0  0  0999 V2000
    3.7320   -0.6817    0.0000 S   0  0  0  0  0  0  0  0  0  0  0  0
    3.2320    0.1843    0.0000 O   0  0  0  0  0  0  0  0  0  0  0  0
    4.2320   -1.5477    0.0000 O   0  0  0  0  0  0  0  0  0  0  0  0
   10.8600    0.3183    0.0000 O   0  0  0  0  0  0  0  0  0  0  0  0
    7.2764    1.1230    0.0000 N   0  0  0  0  0  0  0  0  0  0  0  0
    7.2764   -0.4864    0.0000 N   0  0  0  0  0  0  0  0  0  0  0  0
    2.8660   -1.1817    0.0000 N   0  0  0  0  0  0  0  0  0  0  0  0
   10.8600   -1.4138    0.0000 N   0  0  0  0  0  0  0  0  0  0  0  0
    6.3301    0.8183    0.0000 C   0  0  0  0  0  0  0  0  0  0  0  0
    7.8600    0.3183    0.0000 C   0  0  0  0  0  0  0  0  0  0  0  0
    6.3301   -0.1817    0.0000 C   0  0  0  0  0  0  0  0  0  0  0  0
    8.8600    0.3183    0.0000 C   0  0  0  0  0  0  0  0  0  0  0  0
    7.5870    2.0736    0.0000 C   0  0  0  0  0  0  0  0  0  0  0  0
    4.5981   -0.1817    0.0000 C   0  0  0  0  0  0  0  0  0  0  0  0
    5.4641   -0.6817    0.0000 C   0  0  0  0  0  0  0  0  0  0  0  0
    5.4641    1.3183    0.0000 C   0  0  0  0  0  0  0  0  0  0  0  0
    9.3600   -0.5477    0.0000 C   0  0  0  0  0  0  0  0  0  0  0  0
    4.5981    0.8183    0.0000 C   0  0  0  0  0  0  0  0  0  0  0  0
    8.5655    2.2798    0.0000 C   0  0  0  0  0  0  0  0  0  0  0  0
   10.3600   -0.5477    0.0000 C   0  0  0  0  0  0  0  0  0  0  0  0
    2.0000   -0.6817    0.0000 C   0  0  0  0  0  0  0  0  0  0  0  0
    2.8660   -2.1817    0.0000 C   0  0  0  0  0  0  0  0  0  0  0  0
   11.8600   -1.4138    0.0000 C   0  0  0  0  0  0  0  0  0  0  0  0
   13.8600   -1.4138    0.0000 C   0  0  0  0  0  0  0  0  0  0  0  0
   12.3600   -2.2798    0.0000 C   0  0  0  0  0  0  0  0  0  0  0  0
   12.3600   -0.5477    0.0000 C   0  0  0  0  0  0  0  0  0  0  0  0
   13.3600   -2.2798    0.0000 C   0  0  0  0  0  0  0  0  0  0  0  0
   13.3600   -0.5477    0.0000 C   0  0  0  0  0  0  0  0  0  0  0  0
   14.8600   -1.4138    0.0000 C   0  0  0  0  0  0  0  0  0  0  0  0
   15.3600   -2.2798    0.0000 C   0  0  0  0  0  0  0  0  0  0  0  0
    9.4426    0.5304    0.0000 H   0  0  0  0  0  0  0  0  0  0  0  0
    8.7523    0.9289    0.0000 H   0  0  0  0  0  0  0  0  0  0  0  0
    7.5664    2.6932    0.0000 H   0  0  0  0  0  0  0  0  0  0  0  0
    6.9732    2.1609    0.0000 H   0  0  0  0  0  0  0  0  0  0  0  0
    5.4641   -1.3017    0.0000 H   0  0  0  0  0  0  0  0  0  0  0  0
    5.4641    1.9383    0.0000 H   0  0  0  0  0  0  0  0  0  0  0  0
    8.7774   -0.7598    0.0000 H   0  0  0  0  0  0  0  0  0  0  0  0
    9.4676   -1.1583    0.0000 H   0  0  0  0  0  0  0  0  0  0  0  0
    4.0611    1.1283    0.0000 H   0  0  0  0  0  0  0  0  0  0  0  0
    8.6934    1.6731    0.0000 H   0  0  0  0  0  0  0  0  0  0  0  0
    9.1722    2.4076    0.0000 H   0  0  0  0  0  0  0  0  0  0  0  0
    8.4377    2.8864    0.0000 H   0  0  0  0  0  0  0  0  0  0  0  0
   10.5500   -1.9507    0.0000 H   0  0  0  0  0  0  0  0  0  0  0  0
    2.2460   -2.1817    0.0000 H   0  0  0  0  0  0  0  0  0  0  0  0
    2.8660   -2.8017    0.0000 H   0  0  0  0  0  0  0  0  0  0  0  0
    3.4860   -2.1817    0.0000 H   0  0  0  0  0  0  0  0  0  0  0  0
    2.3100   -0.1448    0.0000 H   0  0  0  0  0  0  0  0  0  0  0  0
    1.4631   -0.3717    0.0000 H   0  0  0  0  0  0  0  0  0  0  0  0
    1.6900   -1.2186    0.0000 H   0  0  0  0  0  0  0  0  0  0  0  0
   12.0500   -2.8167    0.0000 H   0  0  0  0  0  0  0  0  0  0  0  0
   12.0500   -0.0108    0.0000 H   0  0  0  0  0  0  0  0  0  0  0  0
   13.6700   -2.8167    0.0000 H   0  0  0  0  0  0  0  0  0  0  0  0
   13.6700   -0.0108    0.0000 H   0  0  0  0  0  0  0  0  0  0  0  0
   15.4426   -1.2017    0.0000 H   0  0  0  0  0  0  0  0  0  0  0  0
   14.7523   -0.8032    0.0000 H   0  0  0  0  0  0  0  0  0  0  0  0
   14.8230   -2.5898    0.0000 H   0  0  0  0  0  0  0  0  0  0  0  0
   15.6700   -2.8167    0.0000 H   0  0  0  0  0  0  0  0  0  0  0  0
   15.8969   -1.9698    0.0000 H   0  0  0  0  0  0  0  0  0  0  0  0
  1  2  2  0  0  0  0 
  1  3  2  0  0  0  0 
  1  7  1  0  0  0  0 
  1 14  1  0  0  0  0 
  4 20  2  0  0  0  0 
  5  9  1  0  0  0  0 
  5 10  1  0  0  0  0 
  5 13  1  0  0  0  0 
  6 10  2  0  0  0  0 
  6 11  1  0  0  0  0 
  7 21  1  0  0  0  0 
  7 22  1  0  0  0  0 
  8 20  1  0  0  0  0 
  8 23  1  0  0  0  0 
  8 43  1  0  0  0  0 
  9 11  2  0  0  0  0 
  9 16  1  0  0  0  0 
 10 12  1  0  0  0  0 
 11 15  1  0  0  0  0 
 12 17  1  0  0  0  0 
 12 31  1  0  0  0  0 
 12 32  1  0  0  0  0 
 13 19  1  0  0  0  0 
 13 33  1  0  0  0  0 
 13 34  1  0  0  0  0 
 14 15  2  0  0  0  0 
 14 18  1  0  0  0  0 
 15 35  1  0  0  0  0 
 16 18  2  0  0  0  0 
 16 36  1  0  0  0  0 
 17 20  1  0  0  0  0 
 17 37  1  0  0  0  0 
 17 38  1  0  0  0  0 
 18 39  1  0  0  0  0 
 19 40  1  0  0  0  0 
 19 41  1  0  0  0  0 
 19 42  1  0  0  0  0 
 21 47  1  0  0  0  0 
 21 48  1  0  0  0  0 
 21 49  1  0  0  0  0 
 22 44  1  0  0  0  0 
 22 45  1  0  0  0  0 
 22 46  1  0  0  0  0 
 23 25  2  0  0  0  0 
 23 26  1  0  0  0  0 
 24 27  2  0  0  0  0 
 24 28  1  0  0  0  0 
 24 29  1  0  0  0  0 
 25 27  1  0  0  0  0 
 25 50  1  0  0  0  0 
 26 28  2  0  0  0  0 
 26 51  1  0  0  0  0 
 27 52  1  0  0  0  0 
 28 53  1  0  0  0  0 
 29 30  1  0  0  0  0 
 29 54  1  0  0  0  0 
 29 55  1  0  0  0  0 
 30 56  1  0  0  0  0 
 30 57  1  0  0  0  0 
 30 58  1  0  0  0  0 
M  END
> <cdk:Title>
41641047

> <cdk:Remark>
null

> <PUBCHEM_COMPOUND_CID>
41641047

> <PUBCHEM_COMPOUND_CANONICALIZED>
1

> <PUBCHEM_CACTVS_COMPLEXITY>
670

> <PUBCHEM_CACTVS_HBOND_ACCEPTOR>
5

> <PUBCHEM_CACTVS_HBOND_DONOR>
1

> <PUBCHEM_CACTVS_ROTATABLE_BOND>
8

> <PUBCHEM_CACTVS_SUBSKEYS>
AAADceB7sABAAAAAAAAAAAAAAAAAAWAAAAAwYAAAAAAAAFgB9AAAHgQQQAAADAjB3wQz0bfMEAKoAydydHDCgD0hEqAJ2Dk4dJiIaLLAmZGUIAxolALIyCcUgIAOCAQAACAAACAQCAAAQAAAQAAAAAAAAA==

> <PUBCHEM_IUPAC_OPENEYE_NAME>
3-[5-(dimethylsulfamoyl)-1-ethyl-benzimidazol-2-yl]-N-(4-ethylphenyl)propanamide

> <PUBCHEM_IUPAC_CAS_NAME>
3-[5-(dimethylsulfamoyl)-1-ethyl-2-benzimidazolyl]-N-(4-ethylphenyl)propanamide

> <PUBCHEM_IUPAC_NAME>
3-[5-(dimethylsulfamoyl)-1-ethylbenzimidazol-2-yl]-N-(4-ethylphenyl)propanamide

> <PUBCHEM_IUPAC_SYSTEMATIC_NAME>
3-[5-(dimethylsulfamoyl)-1-ethyl-benzimidazol-2-yl]-N-(4-ethylphenyl)propanamide

> <PUBCHEM_IUPAC_TRADITIONAL_NAME>
3-[5-(dimethylsulfamoyl)-1-ethyl-benzimidazol-2-yl]-N-(4-ethylphenyl)propionamide

> <PUBCHEM_IUPAC_INCHI>
InChI=1S/C22H28N4O3S/c1-5-16-7-9-17(10-8-16)23-22(27)14-13-21-24-19-15-18(30(28,29)25(3)4)11-12-20(19)26(21)6-2/h7-12,15H,5-6,13-14H2,1-4H3,(H,23,27)

> <PUBCHEM_IUPAC_INCHIKEY>
QDVUXSSQWVDNDX-UHFFFAOYSA-N

> <PUBCHEM_XLOGP3_AA>
2.8

> <PUBCHEM_EXACT_MASS>
428.188212

> <PUBCHEM_MOLECULAR_FORMULA>
C22H28N4O3S

> <PUBCHEM_MOLECULAR_WEIGHT>
428.54772

> <PUBCHEM_OPENEYE_CAN_SMILES>
CCC1=CC=C(C=C1)NC(=O)CCC2=NC3=C(N2CC)C=CC(=C3)S(=O)(=O)N(C)C

> <PUBCHEM_OPENEYE_ISO_SMILES>
CCC1=CC=C(C=C1)NC(=O)CCC2=NC3=C(N2CC)C=CC(=C3)S(=O)(=O)N(C)C

> <PUBCHEM_CACTVS_TPSA>
92.7

> <PUBCHEM_MONOISOTOPIC_WEIGHT>
428.188212

> <PUBCHEM_TOTAL_CHARGE>
0

> <PUBCHEM_HEAVY_ATOM_COUNT>
30

> <PUBCHEM_ATOM_DEF_STEREO_COUNT>
0

> <PUBCHEM_ATOM_UDEF_STEREO_COUNT>
0

> <PUBCHEM_BOND_DEF_STEREO_COUNT>
0

> <PUBCHEM_BOND_UDEF_STEREO_COUNT>
0

> <PUBCHEM_ISOTOPIC_ATOM_COUNT>
0

> <PUBCHEM_COMPONENT_COUNT>
1

> <PUBCHEM_CACTVS_TAUTO_COUNT>
6

> <PUBCHEM_COORDINATE_TYPE>
1

> <PUBCHEM_BONDANNOTATIONS>
11  15  8

$$$$
41641047
  CDK     1110141346

 58 60  0  0  0  0  0  0  0  0999 V2000
    3.7320   -0.6817    0.0000 S   0  0  0  0  0  0  0  0  0  0  0  0
    3.2320    0.1843    0.0000 O   0  0  0  0  0  0  0  0  0  0  0  0
    4.2320   -1.5477    0.0000 O   0  0  0  0  0  0  0  0  0  0  0  0
   10.8600    0.3183    0.0000 O   0  0  0  0  0  0  0  0  0  0  0  0
    7.2764    1.1230    0.0000 N   0  0  0  0  0  0  0  0  0  0  0  0
    7.2764   -0.4864    0.0000 N   0  0  0  0  0  0  0  0  0  0  0  0
    2.8660   -1.1817    0.0000 N   0  0  0  0  0  0  0  0  0  0  0  0
   10.8600   -1.4138    0.0000 N   0  0  0  0  0  0  0  0  0  0  0  0
    6.3301    0.8183    0.0000 C   0  0  0  0  0  0  0  0  0  0  0  0
    7.8600    0.3183    0.0000 C   0  0  0  0  0  0  0  0  0  0  0  0
    6.3301   -0.1817    0.0000 C   0  0  0  0  0  0  0  0  0  0  0  0
    8.8600    0.3183    0.0000 C   0  0  0  0  0  0  0  0  0  0  0  0
    7.5870    2.0736    0.0000 C   0  0  0  0  0  0  0  0  0  0  0  0
    4.5981   -0.1817    0.0000 C   0  0  0  0  0  0  0  0  0  0  0  0
    5.4641   -0.6817    0.0000 C   0  0  0  0  0  0  0  0  0  0  0  0
    5.4641    1.3183    0.0000 C   0  0  0  0  0  0  0  0  0  0  0  0
    9.3600   -0.5477    0.0000 C   0  0  0  0  0  0  0  0  0  0  0  0
    4.5981    0.8183    0.0000 C   0  0  0  0  0  0  0  0  0  0  0  0
    8.5655    2.2798    0.0000 C   0  0  0  0  0  0  0  0  0  0  0  0
   10.3600   -0.5477    0.0000 C   0  0  0  0  0  0  0  0  0  0  0  0
    2.0000   -0.6817    0.0000 C   0  0  0  0  0  0  0  0  0  0  0  0
    2.8660   -2.1817    0.0000 C   0  0  0  0  0  0  0  0  0  0  0  0
   11.8600   -1.4138    0.0000 C   0  0  0  0  0  0  0  0  0  0  0  0
   13.8600   -1.4138    0.0000 C   0  0  0  0  0  0  0  0  0  0  0  0
   12.3600   -2.2798    0.0000 C   0  0  0  0  0  0  0  0  0  0  0  0
   12.3600   -0.5477    0.0000 C   0  0  0  0  0  0  0  0  0  0  0  0
   13.3600   -2.2798    0.0000 C   0  0  0  0  0  0  0  0  0  0  0  0
   13.3600   -0.5477    0.0000 C   0  0  0  0  0  0  0  0  0  0  0  0
   14.8600   -1.4138    0.0000 C   0  0  0  0  0  0  0  0  0  0  0  0
   15.3600   -2.2798    0.0000 C   0  0  0  0  0  0  0  0  0  0  0  0
    9.4426    0.5304    0.0000 H   0  0  0  0  0  0  0  0  0  0  0  0
    8.7523    0.9289    0.0000 H   0  0  0  0  0  0  0  0  0  0  0  0
    7.5664    2.6932    0.0000 H   0  0  0  0  0  0  0  0  0  0  0  0
    6.9732    2.1609    0.0000 H   0  0  0  0  0  0  0  0  0  0  0  0
    5.4641   -1.3017    0.0000 H   0  0  0  0  0  0  0  0  0  0  0  0
    5.4641    1.9383    0.0000 H   0  0  0  0  0  0  0  0  0  0  0  0
    8.7774   -0.7598    0.0000 H   0  0  0  0  0  0  0  0  0  0  0  0
    9.4676   -1.1583    0.0000 H   0  0  0  0  0  0  0  0  0  0  0  0
    4.0611    1.1283    0.0000 H   0  0  0  0  0  0  0  0  0  0  0  0
    8.6934    1.6731    0.0000 H   0  0  0  0  0  0  0  0  0  0  0  0
    9.1722    2.4076    0.0000 H   0  0  0  0  0  0  0  0  0  0  0  0
    8.4377    2.8864    0.0000 H   0  0  0  0  0  0  0  0  0  0  0  0
   10.5500   -1.9507    0.0000 H   0  0  0  0  0  0  0  0  0  0  0  0
    2.2460   -2.1817    0.0000 H   0  0  0  0  0  0  0  0  0  0  0  0
    2.8660   -2.8017    0.0000 H   0  0  0  0  0  0  0  0  0  0  0  0
    3.4860   -2.1817    0.0000 H   0  0  0  0  0  0  0  0  0  0  0  0
    2.3100   -0.1448    0.0000 H   0  0  0  0  0  0  0  0  0  0  0  0
    1.4631   -0.3717    0.0000 H   0  0  0  0  0  0  0  0  0  0  0  0
    1.6900   -1.2186    0.0000 H   0  0  0  0  0  0  0  0  0  0  0  0
   12.0500   -2.8167    0.0000 H   0  0  0  0  0  0  0  0  0  0  0  0
   12.0500   -0.0108    0.0000 H   0  0  0  0  0  0  0  0  0  0  0  0
   13.6700   -2.8167    0.0000 H   0  0  0  0  0  0  0  0  0  0  0  0
   13.6700   -0.0108    0.0000 H   0  0  0  0  0  0  0  0  0  0  0  0
   15.4426   -1.2017    0.0000 H   0  0  0  0  0  0  0  0  0  0  0  0
   14.7523   -0.8032    0.0000 H   0  0  0  0  0  0  0  0  0  0  0  0
   14.8230   -2.5898    0.0000 H   0  0  0  0  0  0  0  0  0  0  0  0
   15.6700   -2.8167    0.0000 H   0  0  0  0  0  0  0  0  0  0  0  0
   15.8969   -1.9698    0.0000 H   0  0  0  0  0  0  0  0  0  0  0  0
  1  2  2  0  0  0  0 
  1  3  2  0  0  0  0 
  1  7  1  0  0  0  0 
  1 14  1  0  0  0  0 
  4 20  2  0  0  0  0 
  5  9  1  0  0  0  0 
  5 10  1  0  0  0  0 
  5 13  1  0  0  0  0 
  6 10  2  0  0  0  0 
  6 11  1  0  0  0  0 
  7 21  1  0  0  0  0 
  7 22  1  0  0  0  0 
  8 20  1  0  0  0  0 
  8 23  1  0  0  0  0 
  8 43  1  0  0  0  0 
  9 11  2  0  0  0  0 
  9 16  1  0  0  0  0 
 10 12  1  0  0  0  0 
 11 15  1  0  0  0  0 
 12 17  1  0  0  0  0 
 12 31  1  0  0  0  0 
 12 32  1  0  0  0  0 
 13 19  1  0  0  0  0 
 13 33  1  0  0  0  0 
 13 34  1  0  0  0  0 
 14 15  2  0  0  0  0 
 14 18  1  0  0  0  0 
 15 35  1  0  0  0  0 
 16 18  2  0  0  0  0 
 16 36  1  0  0  0  0 
 17 20  1  0  0  0  0 
 17 37  1  0  0  0  0 
 17 38  1  0  0  0  0 
 18 39  1  0  0  0  0 
 19 40  1  0  0  0  0 
 19 41  1  0  0  0  0 
 19 42  1  0  0  0  0 
 21 47  1  0  0  0  0 
 21 48  1  0  0  0  0 
 21 49  1  0  0  0  0 
 22 44  1  0  0  0  0 
 22 45  1  0  0  0  0 
 22 46  1  0  0  0  0 
 23 25  2  0  0  0  0 
 23 26  1  0  0  0  0 
 24 27  2  0  0  0  0 
 24 28  1  0  0  0  0 
 24 29  1  0  0  0  0 
 25 27  1  0  0  0  0 
 25 50  1  0  0  0  0 
 26 28  2  0  0  0  0 
 26 51  1  0  0  0  0 
 27 52  1  0  0  0  0 
 28 53  1  0  0  0  0 
 29 30  1  0  0  0  0 
 29 54  1  0  0  0  0 
 29 55  1  0  0  0  0 
 30 56  1  0  0  0  0 
 30 57  1  0  0  0  0 
 30 58  1  0  0  0  0 
M  END
> <cdk:Title>
41641047

> <cdk:Remark>
null

> <PUBCHEM_COMPOUND_CID>
41641047

> <PUBCHEM_COMPOUND_CANONICALIZED>
1

> <PUBCHEM_CACTVS_COMPLEXITY>
670

> <PUBCHEM_CACTVS_HBOND_ACCEPTOR>
5

> <PUBCHEM_CACTVS_HBOND_DONOR>
1

> <PUBCHEM_CACTVS_ROTATABLE_BOND>
8

> <PUBCHEM_CACTVS_SUBSKEYS>
AAADceB7sABAAAAAAAAAAAAAAAAAAWAAAAAwYAAAAAAAAFgB9AAAHgQQQAAADAjB3wQz0bfMEAKoAydydHDCgD0hEqAJ2Dk4dJiIaLLAmZGUIAxolALIyCcUgIAOCAQAACAAACAQCAAAQAAAQAAAAAAAAA==

> <PUBCHEM_IUPAC_OPENEYE_NAME>
3-[5-(dimethylsulfamoyl)-1-ethyl-benzimidazol-2-yl]-N-(4-ethylphenyl)propanamide

> <PUBCHEM_IUPAC_CAS_NAME>
3-[5-(dimethylsulfamoyl)-1-ethyl-2-benzimidazolyl]-N-(4-ethylphenyl)propanamide

> <PUBCHEM_IUPAC_NAME>
3-[5-(dimethylsulfamoyl)-1-ethylbenzimidazol-2-yl]-N-(4-ethylphenyl)propanamide

> <PUBCHEM_IUPAC_SYSTEMATIC_NAME>
3-[5-(dimethylsulfamoyl)-1-ethyl-benzimidazol-2-yl]-N-(4-ethylphenyl)propanamide

> <PUBCHEM_IUPAC_TRADITIONAL_NAME>
3-[5-(dimethylsulfamoyl)-1-ethyl-benzimidazol-2-yl]-N-(4-ethylphenyl)propionamide

> <PUBCHEM_IUPAC_INCHI>
InChI=1S/C22H28N4O3S/c1-5-16-7-9-17(10-8-16)23-22(27)14-13-21-24-19-15-18(30(28,29)25(3)4)11-12-20(19)26(21)6-2/h7-12,15H,5-6,13-14H2,1-4H3,(H,23,27)

> <PUBCHEM_IUPAC_INCHIKEY>
QDVUXSSQWVDNDX-UHFFFAOYSA-N

> <PUBCHEM_XLOGP3_AA>
2.8

> <PUBCHEM_EXACT_MASS>
428.188212

> <PUBCHEM_MOLECULAR_FORMULA>
C22H28N4O3S

> <PUBCHEM_MOLECULAR_WEIGHT>
428.54772

> <PUBCHEM_OPENEYE_CAN_SMILES>
CCC1=CC=C(C=C1)NC(=O)CCC2=NC3=C(N2CC)C=CC(=C3)S(=O)(=O)N(C)C

> <PUBCHEM_OPENEYE_ISO_SMILES>
CCC1=CC=C(C=C1)NC(=O)CCC2=NC3=C(N2CC)C=CC(=C3)S(=O)(=O)N(C)C

> <PUBCHEM_CACTVS_TPSA>
92.7

> <PUBCHEM_MONOISOTOPIC_WEIGHT>
428.188212

> <PUBCHEM_TOTAL_CHARGE>
0

> <PUBCHEM_HEAVY_ATOM_COUNT>
30

> <PUBCHEM_ATOM_DEF_STEREO_COUNT>
0

> <PUBCHEM_ATOM_UDEF_STEREO_COUNT>
0

> <PUBCHEM_BOND_DEF_STEREO_COUNT>
0

> <PUBCHEM_BOND_UDEF_STEREO_COUNT>
0

> <PUBCHEM_ISOTOPIC_ATOM_COUNT>
0

> <PUBCHEM_COMPONENT_COUNT>
1

> <PUBCHEM_CACTVS_TAUTO_COUNT>
6

> <PUBCHEM_COORDINATE_TYPE>
1

> <PUBCHEM_BONDANNOTATIONS>
11  15  8

$$$$
41641047
  CDK     1110141352

 58 60  0  0  0  0  0  0  0  0999 V2000
    3.7320   -0.6817    0.0000 S   0  0  0  0  0  0  0  0  0  0  0  0
    3.2320    0.1843    0.0000 O   0  0  0  0  0  0  0  0  0  0  0  0
    4.2320   -1.5477    0.0000 O   0  0  0  0  0  0  0  0  0  0  0  0
   10.8600    0.3183    0.0000 O   0  0  0  0  0  0  0  0  0  0  0  0
    7.2764    1.1230    0.0000 N   0  0  0  0  0  0  0  0  0  0  0  0
    7.2764   -0.4864    0.0000 N   0  0  0  0  0  0  0  0  0  0  0  0
    2.8660   -1.1817    0.0000 N   0  0  0  0  0  0  0  0  0  0  0  0
   10.8600   -1.4138    0.0000 N   0  0  0  0  0  0  0  0  0  0  0  0
    6.3301    0.8183    0.0000 C   0  0  0  0  0  0  0  0  0  0  0  0
    7.8600    0.3183    0.0000 C   0  0  0  0  0  0  0  0  0  0  0  0
    6.3301   -0.1817    0.0000 C   0  0  0  0  0  0  0  0  0  0  0  0
    8.8600    0.3183    0.0000 C   0  0  0  0  0  0  0  0  0  0  0  0
    7.5870    2.0736    0.0000 C   0  0  0  0  0  0  0  0  0  0  0  0
    4.5981   -0.1817    0.0000 C   0  0  0  0  0  0  0  0  0  0  0  0
    5.4641   -0.6817    0.0000 C   0  0  0  0  0  0  0  0  0  0  0  0
    5.4641    1.3183    0.0000 C   0  0  0  0  0  0  0  0  0  0  0  0
    9.3600   -0.5477    0.0000 C   0  0  0  0  0  0  0  0  0  0  0  0
    4.5981    0.8183    0.0000 C   0  0  0  0  0  0  0  0  0  0  0  0
    8.5655    2.2798    0.0000 C   0  0  0  0  0  0  0  0  0  0  0  0
   10.3600   -0.5477    0.0000 C   0  0  0  0  0  0  0  0  0  0  0  0
    2.0000   -0.6817    0.0000 C   0  0  0  0  0  0  0  0  0  0  0  0
    2.8660   -2.1817    0.0000 C   0  0  0  0  0  0  0  0  0  0  0  0
   11.8600   -1.4138    0.0000 C   0  0  0  0  0  0  0  0  0  0  0  0
   13.8600   -1.4138    0.0000 C   0  0  0  0  0  0  0  0  0  0  0  0
   12.3600   -2.2798    0.0000 C   0  0  0  0  0  0  0  0  0  0  0  0
   12.3600   -0.5477    0.0000 C   0  0  0  0  0  0  0  0  0  0  0  0
   13.3600   -2.2798    0.0000 C   0  0  0  0  0  0  0  0  0  0  0  0
   13.3600   -0.5477    0.0000 C   0  0  0  0  0  0  0  0  0  0  0  0
   14.8600   -1.4138    0.0000 C   0  0  0  0  0  0  0  0  0  0  0  0
   15.3600   -2.2798    0.0000 C   0  0  0  0  0  0  0  0  0  0  0  0
    9.4426    0.5304    0.0000 H   0  0  0  0  0  0  0  0  0  0  0  0
    8.7523    0.9289    0.0000 H   0  0  0  0  0  0  0  0  0  0  0  0
    7.5664    2.6932    0.0000 H   0  0  0  0  0  0  0  0  0  0  0  0
    6.9732    2.1609    0.0000 H   0  0  0  0  0  0  0  0  0  0  0  0
    5.4641   -1.3017    0.0000 H   0  0  0  0  0  0  0  0  0  0  0  0
    5.4641    1.9383    0.0000 H   0  0  0  0  0  0  0  0  0  0  0  0
    8.7774   -0.7598    0.0000 H   0  0  0  0  0  0  0  0  0  0  0  0
    9.4676   -1.1583    0.0000 H   0  0  0  0  0  0  0  0  0  0  0  0
    4.0611    1.1283    0.0000 H   0  0  0  0  0  0  0  0  0  0  0  0
    8.6934    1.6731    0.0000 H   0  0  0  0  0  0  0  0  0  0  0  0
    9.1722    2.4076    0.0000 H   0  0  0  0  0  0  0  0  0  0  0  0
    8.4377    2.8864    0.0000 H   0  0  0  0  0  0  0  0  0  0  0  0
   10.5500   -1.9507    0.0000 H   0  0  0  0  0  0  0  0  0  0  0  0
    2.2460   -2.1817    0.0000 H   0  0  0  0  0  0  0  0  0  0  0  0
    2.8660   -2.8017    0.0000 H   0  0  0  0  0  0  0  0  0  0  0  0
    3.4860   -2.1817    0.0000 H   0  0  0  0  0  0  0  0  0  0  0  0
    2.3100   -0.1448    0.0000 H   0  0  0  0  0  0  0  0  0  0  0  0
    1.4631   -0.3717    0.0000 H   0  0  0  0  0  0  0  0  0  0  0  0
    1.6900   -1.2186    0.0000 H   0  0  0  0  0  0  0  0  0  0  0  0
   12.0500   -2.8167    0.0000 H   0  0  0  0  0  0  0  0  0  0  0  0
   12.0500   -0.0108    0.0000 H   0  0  0  0  0  0  0  0  0  0  0  0
   13.6700   -2.8167    0.0000 H   0  0  0  0  0  0  0  0  0  0  0  0
   13.6700   -0.0108    0.0000 H   0  0  0  0  0  0  0  0  0  0  0  0
   15.4426   -1.2017    0.0000 H   0  0  0  0  0  0  0  0  0  0  0  0
   14.7523   -0.8032    0.0000 H   0  0  0  0  0  0  0  0  0  0  0  0
   14.8230   -2.5898    0.0000 H   0  0  0  0  0  0  0  0  0  0  0  0
   15.6700   -2.8167    0.0000 H   0  0  0  0  0  0  0  0  0  0  0  0
   15.8969   -1.9698    0.0000 H   0  0  0  0  0  0  0  0  0  0  0  0
  1  2  2  0  0  0  0 
  1  3  2  0  0  0  0 
  1  7  1  0  0  0  0 
  1 14  1  0  0  0  0 
  4 20  2  0  0  0  0 
  5  9  1  0  0  0  0 
  5 10  1  0  0  0  0 
  5 13  1  0  0  0  0 
  6 10  2  0  0  0  0 
  6 11  1  0  0  0  0 
  7 21  1  0  0  0  0 
  7 22  1  0  0  0  0 
  8 20  1  0  0  0  0 
  8 23  1  0  0  0  0 
  8 43  1  0  0  0  0 
  9 11  2  0  0  0  0 
  9 16  1  0  0  0  0 
 10 12  1  0  0  0  0 
 11 15  1  0  0  0  0 
 12 17  1  0  0  0  0 
 12 31  1  0  0  0  0 
 12 32  1  0  0  0  0 
 13 19  1  0  0  0  0 
 13 33  1  0  0  0  0 
 13 34  1  0  0  0  0 
 14 15  2  0  0  0  0 
 14 18  1  0  0  0  0 
 15 35  1  0  0  0  0 
 16 18  2  0  0  0  0 
 16 36  1  0  0  0  0 
 17 20  1  0  0  0  0 
 17 37  1  0  0  0  0 
 17 38  1  0  0  0  0 
 18 39  1  0  0  0  0 
 19 40  1  0  0  0  0 
 19 41  1  0  0  0  0 
 19 42  1  0  0  0  0 
 21 47  1  0  0  0  0 
 21 48  1  0  0  0  0 
 21 49  1  0  0  0  0 
 22 44  1  0  0  0  0 
 22 45  1  0  0  0  0 
 22 46  1  0  0  0  0 
 23 25  2  0  0  0  0 
 23 26  1  0  0  0  0 
 24 27  2  0  0  0  0 
 24 28  1  0  0  0  0 
 24 29  1  0  0  0  0 
 25 27  1  0  0  0  0 
 25 50  1  0  0  0  0 
 26 28  2  0  0  0  0 
 26 51  1  0  0  0  0 
 27 52  1  0  0  0  0 
 28 53  1  0  0  0  0 
 29 30  1  0  0  0  0 
 29 54  1  0  0  0  0 
 29 55  1  0  0  0  0 
 30 56  1  0  0  0  0 
 30 57  1  0  0  0  0 
 30 58  1  0  0  0  0 
M  END
> <cdk:Title>
41641047

> <cdk:Remark>
null

> <PUBCHEM_COMPOUND_CID>
41641047

> <PUBCHEM_COMPOUND_CANONICALIZED>
1

> <PUBCHEM_CACTVS_COMPLEXITY>
670

> <PUBCHEM_CACTVS_HBOND_ACCEPTOR>
5

> <PUBCHEM_CACTVS_HBOND_DONOR>
1

> <PUBCHEM_CACTVS_ROTATABLE_BOND>
8

> <PUBCHEM_CACTVS_SUBSKEYS>
AAADceB7sABAAAAAAAAAAAAAAAAAAWAAAAAwYAAAAAAAAFgB9AAAHgQQQAAADAjB3wQz0bfMEAKoAydydHDCgD0hEqAJ2Dk4dJiIaLLAmZGUIAxolALIyCcUgIAOCAQAACAAACAQCAAAQAAAQAAAAAAAAA==

> <PUBCHEM_IUPAC_OPENEYE_NAME>
3-[5-(dimethylsulfamoyl)-1-ethyl-benzimidazol-2-yl]-N-(4-ethylphenyl)propanamide

> <PUBCHEM_IUPAC_CAS_NAME>
3-[5-(dimethylsulfamoyl)-1-ethyl-2-benzimidazolyl]-N-(4-ethylphenyl)propanamide

> <PUBCHEM_IUPAC_NAME>
3-[5-(dimethylsulfamoyl)-1-ethylbenzimidazol-2-yl]-N-(4-ethylphenyl)propanamide

> <PUBCHEM_IUPAC_SYSTEMATIC_NAME>
3-[5-(dimethylsulfamoyl)-1-ethyl-benzimidazol-2-yl]-N-(4-ethylphenyl)propanamide

> <PUBCHEM_IUPAC_TRADITIONAL_NAME>
3-[5-(dimethylsulfamoyl)-1-ethyl-benzimidazol-2-yl]-N-(4-ethylphenyl)propionamide

> <PUBCHEM_IUPAC_INCHI>
InChI=1S/C22H28N4O3S/c1-5-16-7-9-17(10-8-16)23-22(27)14-13-21-24-19-15-18(30(28,29)25(3)4)11-12-20(19)26(21)6-2/h7-12,15H,5-6,13-14H2,1-4H3,(H,23,27)

> <PUBCHEM_IUPAC_INCHIKEY>
QDVUXSSQWVDNDX-UHFFFAOYSA-N

> <PUBCHEM_XLOGP3_AA>
2.8

> <PUBCHEM_EXACT_MASS>
428.188212

> <PUBCHEM_MOLECULAR_FORMULA>
C22H28N4O3S

> <PUBCHEM_MOLECULAR_WEIGHT>
428.54772

> <PUBCHEM_OPENEYE_CAN_SMILES>
CCC1=CC=C(C=C1)NC(=O)CCC2=NC3=C(N2CC)C=CC(=C3)S(=O)(=O)N(C)C

> <PUBCHEM_OPENEYE_ISO_SMILES>
CCC1=CC=C(C=C1)NC(=O)CCC2=NC3=C(N2CC)C=CC(=C3)S(=O)(=O)N(C)C

> <PUBCHEM_CACTVS_TPSA>
92.7

> <PUBCHEM_MONOISOTOPIC_WEIGHT>
428.188212

> <PUBCHEM_TOTAL_CHARGE>
0

> <PUBCHEM_HEAVY_ATOM_COUNT>
30

> <PUBCHEM_ATOM_DEF_STEREO_COUNT>
0

> <PUBCHEM_ATOM_UDEF_STEREO_COUNT>
0

> <PUBCHEM_BOND_DEF_STEREO_COUNT>
0

> <PUBCHEM_BOND_UDEF_STEREO_COUNT>
0

> <PUBCHEM_ISOTOPIC_ATOM_COUNT>
0

> <PUBCHEM_COMPONENT_COUNT>
1

> <PUBCHEM_CACTVS_TAUTO_COUNT>
6

> <PUBCHEM_COORDINATE_TYPE>
1

> <PUBCHEM_BONDANNOTATIONS>
11  15  8

$$$$
