48329520
  CDK     1110140953

 50 52  0  0  0  0  0  0  0  0999 V2000
    4.5981   -3.5000    0.0000 O   0  0  0  0  0  0  0  0  0  0  0  0
    8.0622    3.5000    0.0000 O   0  0  0  0  0  0  0  0  0  0  0  0
    5.4641   -1.0000    0.0000 O   0  0  0  0  0  0  0  0  0  0  0  0
    4.5981    5.5000    0.0000 O   0  0  0  0  0  0  0  0  0  0  0  0
    7.1962   -1.0000    0.0000 O   0  0  0  0  0  0  0  0  0  0  0  0
    6.3301    3.5000    0.0000 N   0  0  0  0  0  0  0  0  0  0  0  0
    5.4641    4.0000    0.0000 N   0  0  0  0  0  0  0  0  0  0  0  0
    7.1962    5.0000    0.0000 C   0  0  0  0  0  0  0  0  0  0  0  0
    6.3301    5.5000    0.0000 C   0  0  0  0  0  0  0  0  0  0  0  0
    7.1962    4.0000    0.0000 C   0  0  0  0  0  0  0  0  0  0  0  0
    6.3301    2.5000    0.0000 C   0  0  0  0  0  0  0  0  0  0  0  0
    5.4641    5.0000    0.0000 C   0  0  0  0  0  0  0  0  0  0  0  0
    5.4641    2.0000    0.0000 C   0  0  0  0  0  0  0  0  0  0  0  0
    7.1962    2.0000    0.0000 C   0  0  0  0  0  0  0  0  0  0  0  0
    6.3301    0.5000    0.0000 C   0  0  0  0  0  0  0  0  0  0  0  0
    3.7320   -4.0000    0.0000 C   0  0  0  0  0  0  0  0  0  0  0  0
    5.4641    1.0000    0.0000 C   0  0  0  0  0  0  0  0  0  0  0  0
    7.1962    1.0000    0.0000 C   0  0  0  0  0  0  0  0  0  0  0  0
    2.8660   -3.5000    0.0000 C   0  0  0  0  0  0  0  0  0  0  0  0
    3.7320   -5.0000    0.0000 C   0  0  0  0  0  0  0  0  0  0  0  0
    4.5981   -2.5000    0.0000 C   0  0  0  0  0  0  0  0  0  0  0  0
    5.4641   -2.0000    0.0000 C   0  0  0  0  0  0  0  0  0  0  0  0
    2.0000   -4.0000    0.0000 C   0  0  0  0  0  0  0  0  0  0  0  0
    2.8660   -5.5000    0.0000 C   0  0  0  0  0  0  0  0  0  0  0  0
    6.3301   -0.5000    0.0000 C   0  0  0  0  0  0  0  0  0  0  0  0
    2.0000   -5.0000    0.0000 C   0  0  0  0  0  0  0  0  0  0  0  0
    2.8660   -2.5000    0.0000 C   0  0  0  0  0  0  0  0  0  0  0  0
    4.5981   -5.5000    0.0000 C   0  0  0  0  0  0  0  0  0  0  0  0
    7.8067    4.8923    0.0000 H   0  0  0  0  0  0  0  0  0  0  0  0
    7.4082    5.5826    0.0000 H   0  0  0  0  0  0  0  0  0  0  0  0
    6.7287    5.9750    0.0000 H   0  0  0  0  0  0  0  0  0  0  0  0
    5.9316    5.9750    0.0000 H   0  0  0  0  0  0  0  0  0  0  0  0
    4.9272    3.6900    0.0000 H   0  0  0  0  0  0  0  0  0  0  0  0
    4.9272    2.3100    0.0000 H   0  0  0  0  0  0  0  0  0  0  0  0
    7.7331    2.3100    0.0000 H   0  0  0  0  0  0  0  0  0  0  0  0
    4.9272    0.6900    0.0000 H   0  0  0  0  0  0  0  0  0  0  0  0
    7.7331    0.6900    0.0000 H   0  0  0  0  0  0  0  0  0  0  0  0
    4.3860   -1.9174    0.0000 H   0  0  0  0  0  0  0  0  0  0  0  0
    3.9875   -2.6077    0.0000 H   0  0  0  0  0  0  0  0  0  0  0  0
    5.6762   -2.5826    0.0000 H   0  0  0  0  0  0  0  0  0  0  0  0
    6.0747   -1.8923    0.0000 H   0  0  0  0  0  0  0  0  0  0  0  0
    1.4631   -3.6900    0.0000 H   0  0  0  0  0  0  0  0  0  0  0  0
    2.8660   -6.1200    0.0000 H   0  0  0  0  0  0  0  0  0  0  0  0
    1.4631   -5.3100    0.0000 H   0  0  0  0  0  0  0  0  0  0  0  0
    3.4860   -2.5000    0.0000 H   0  0  0  0  0  0  0  0  0  0  0  0
    2.8660   -1.8800    0.0000 H   0  0  0  0  0  0  0  0  0  0  0  0
    2.2460   -2.5000    0.0000 H   0  0  0  0  0  0  0  0  0  0  0  0
    4.2881   -6.0369    0.0000 H   0  0  0  0  0  0  0  0  0  0  0  0
    5.1350   -5.8100    0.0000 H   0  0  0  0  0  0  0  0  0  0  0  0
    4.9081   -4.9631    0.0000 H   0  0  0  0  0  0  0  0  0  0  0  0
  1 16  1  0  0  0  0 
  1 21  1  0  0  0  0 
  2 10  2  0  0  0  0 
  3 22  1  0  0  0  0 
  3 25  1  0  0  0  0 
  4 12  2  0  0  0  0 
  5 25  2  0  0  0  0 
  6  7  1  0  0  0  0 
  6 10  1  0  0  0  0 
  6 11  1  0  0  0  0 
  7 12  1  0  0  0  0 
  7 33  1  0  0  0  0 
  8  9  1  0  0  0  0 
  8 10  1  0  0  0  0 
  8 29  1  0  0  0  0 
  8 30  1  0  0  0  0 
  9 12  1  0  0  0  0 
  9 31  1  0  0  0  0 
  9 32  1  0  0  0  0 
 11 13  2  0  0  0  0 
 11 14  1  0  0  0  0 
 13 17  1  0  0  0  0 
 13 34  1  0  0  0  0 
 14 18  2  0  0  0  0 
 14 35  1  0  0  0  0 
 15 17  2  0  0  0  0 
 15 18  1  0  0  0  0 
 15 25  1  0  0  0  0 
 16 19  2  0  0  0  0 
 16 20  1  0  0  0  0 
 17 36  1  0  0  0  0 
 18 37  1  0  0  0  0 
 19 23  1  0  0  0  0 
 19 27  1  0  0  0  0 
 20 24  2  0  0  0  0 
 20 28  1  0  0  0  0 
 21 22  1  0  0  0  0 
 21 38  1  0  0  0  0 
 21 39  1  0  0  0  0 
 22 40  1  0  0  0  0 
 22 41  1  0  0  0  0 
 23 26  2  0  0  0  0 
 23 42  1  0  0  0  0 
 24 26  1  0  0  0  0 
 24 43  1  0  0  0  0 
 26 44  1  0  0  0  0 
 27 45  1  0  0  0  0 
 27 46  1  0  0  0  0 
 27 47  1  0  0  0  0 
 28 48  1  0  0  0  0 
 28 49  1  0  0  0  0 
 28 50  1  0  0  0  0 
M  END
> <cdk:Title>
48329520

> <cdk:Remark>
null

> <PUBCHEM_COMPOUND_CID>
48329520

> <PUBCHEM_COMPOUND_CANONICALIZED>
1

> <PUBCHEM_CACTVS_COMPLEXITY>
563

> <PUBCHEM_CACTVS_HBOND_ACCEPTOR>
5

> <PUBCHEM_CACTVS_HBOND_DONOR>
1

> <PUBCHEM_CACTVS_ROTATABLE_BOND>
7

> <PUBCHEM_CACTVS_SUBSKEYS>
AAADceB7OAAAAAAAAAAAAAAAAAAAAAAAAAA8YIAAAAAAAAABQAAAHgAYAAAADAyhmAIyzoJiBACIAiXSWACCDAAlIgAaqAEEbMgNJjLEtZuGOSjk1BHK6Yed2WOeCAACAAAIAAAQAAQAABAAAAAAAAAAAA==

> <PUBCHEM_IUPAC_OPENEYE_NAME>
2-(2,6-dimethylphenoxy)ethyl 4-(3,6-dioxohexahydropyridazin-1-yl)benzoate

> <PUBCHEM_IUPAC_CAS_NAME>
4-(3,6-dioxo-1-diazinanyl)benzoic acid 2-(2,6-dimethylphenoxy)ethyl ester

> <PUBCHEM_IUPAC_NAME>
2-(2,6-dimethylphenoxy)ethyl 4-(3,6-dioxodiazinan-1-yl)benzoate

> <PUBCHEM_IUPAC_SYSTEMATIC_NAME>
2-(2,6-dimethylphenoxy)ethyl 4-[3,6-bis(oxidanylidene)-1,2-diazinan-1-yl]benzoate

> <PUBCHEM_IUPAC_TRADITIONAL_NAME>
4-(3,6-diketohexahydropyridazin-1-yl)benzoic acid 2-(2,6-dimethylphenoxy)ethyl ester

> <PUBCHEM_IUPAC_INCHI>
InChI=1S/C21H22N2O5/c1-14-4-3-5-15(2)20(14)27-12-13-28-21(26)16-6-8-17(9-7-16)23-19(25)11-10-18(24)22-23/h3-9H,10-13H2,1-2H3,(H,22,24)

> <PUBCHEM_IUPAC_INCHIKEY>
SIKMWJHTWNTULI-UHFFFAOYSA-N

> <PUBCHEM_XLOGP3_AA>
2.7

> <PUBCHEM_EXACT_MASS>
382.152872

> <PUBCHEM_MOLECULAR_FORMULA>
C21H22N2O5

> <PUBCHEM_MOLECULAR_WEIGHT>
382.40978

> <PUBCHEM_OPENEYE_CAN_SMILES>
CC1=C(C(=CC=C1)C)OCCOC(=O)C2=CC=C(C=C2)N3C(=O)CCC(=O)N3

> <PUBCHEM_OPENEYE_ISO_SMILES>
CC1=C(C(=CC=C1)C)OCCOC(=O)C2=CC=C(C=C2)N3C(=O)CCC(=O)N3

> <PUBCHEM_CACTVS_TPSA>
84.9

> <PUBCHEM_MONOISOTOPIC_WEIGHT>
382.152872

> <PUBCHEM_TOTAL_CHARGE>
0

> <PUBCHEM_HEAVY_ATOM_COUNT>
28

> <PUBCHEM_ATOM_DEF_STEREO_COUNT>
0

> <PUBCHEM_ATOM_UDEF_STEREO_COUNT>
0

> <PUBCHEM_BOND_DEF_STEREO_COUNT>
0

> <PUBCHEM_BOND_UDEF_STEREO_COUNT>
0

> <PUBCHEM_ISOTOPIC_ATOM_COUNT>
0

> <PUBCHEM_COMPONENT_COUNT>
1

> <PUBCHEM_CACTVS_TAUTO_COUNT>
6

> <PUBCHEM_COORDINATE_TYPE>
1

> <PUBCHEM_BONDANNOTATIONS>
11  13  8

$$$$
48329520
  CDK     1110141344

 50 52  0  0  0  0  0  0  0  0999 V2000
    4.5981   -3.5000    0.0000 O   0  0  0  0  0  0  0  0  0  0  0  0
    8.0622    3.5000    0.0000 O   0  0  0  0  0  0  0  0  0  0  0  0
    5.4641   -1.0000    0.0000 O   0  0  0  0  0  0  0  0  0  0  0  0
    4.5981    5.5000    0.0000 O   0  0  0  0  0  0  0  0  0  0  0  0
    7.1962   -1.0000    0.0000 O   0  0  0  0  0  0  0  0  0  0  0  0
    6.3301    3.5000    0.0000 N   0  0  0  0  0  0  0  0  0  0  0  0
    5.4641    4.0000    0.0000 N   0  0  0  0  0  0  0  0  0  0  0  0
    7.1962    5.0000    0.0000 C   0  0  0  0  0  0  0  0  0  0  0  0
    6.3301    5.5000    0.0000 C   0  0  0  0  0  0  0  0  0  0  0  0
    7.1962    4.0000    0.0000 C   0  0  0  0  0  0  0  0  0  0  0  0
    6.3301    2.5000    0.0000 C   0  0  0  0  0  0  0  0  0  0  0  0
    5.4641    5.0000    0.0000 C   0  0  0  0  0  0  0  0  0  0  0  0
    5.4641    2.0000    0.0000 C   0  0  0  0  0  0  0  0  0  0  0  0
    7.1962    2.0000    0.0000 C   0  0  0  0  0  0  0  0  0  0  0  0
    6.3301    0.5000    0.0000 C   0  0  0  0  0  0  0  0  0  0  0  0
    3.7320   -4.0000    0.0000 C   0  0  0  0  0  0  0  0  0  0  0  0
    5.4641    1.0000    0.0000 C   0  0  0  0  0  0  0  0  0  0  0  0
    7.1962    1.0000    0.0000 C   0  0  0  0  0  0  0  0  0  0  0  0
    2.8660   -3.5000    0.0000 C   0  0  0  0  0  0  0  0  0  0  0  0
    3.7320   -5.0000    0.0000 C   0  0  0  0  0  0  0  0  0  0  0  0
    4.5981   -2.5000    0.0000 C   0  0  0  0  0  0  0  0  0  0  0  0
    5.4641   -2.0000    0.0000 C   0  0  0  0  0  0  0  0  0  0  0  0
    2.0000   -4.0000    0.0000 C   0  0  0  0  0  0  0  0  0  0  0  0
    2.8660   -5.5000    0.0000 C   0  0  0  0  0  0  0  0  0  0  0  0
    6.3301   -0.5000    0.0000 C   0  0  0  0  0  0  0  0  0  0  0  0
    2.0000   -5.0000    0.0000 C   0  0  0  0  0  0  0  0  0  0  0  0
    2.8660   -2.5000    0.0000 C   0  0  0  0  0  0  0  0  0  0  0  0
    4.5981   -5.5000    0.0000 C   0  0  0  0  0  0  0  0  0  0  0  0
    7.8067    4.8923    0.0000 H   0  0  0  0  0  0  0  0  0  0  0  0
    7.4082    5.5826    0.0000 H   0  0  0  0  0  0  0  0  0  0  0  0
    6.7287    5.9750    0.0000 H   0  0  0  0  0  0  0  0  0  0  0  0
    5.9316    5.9750    0.0000 H   0  0  0  0  0  0  0  0  0  0  0  0
    4.9272    3.6900    0.0000 H   0  0  0  0  0  0  0  0  0  0  0  0
    4.9272    2.3100    0.0000 H   0  0  0  0  0  0  0  0  0  0  0  0
    7.7331    2.3100    0.0000 H   0  0  0  0  0  0  0  0  0  0  0  0
    4.9272    0.6900    0.0000 H   0  0  0  0  0  0  0  0  0  0  0  0
    7.7331    0.6900    0.0000 H   0  0  0  0  0  0  0  0  0  0  0  0
    4.3860   -1.9174    0.0000 H   0  0  0  0  0  0  0  0  0  0  0  0
    3.9875   -2.6077    0.0000 H   0  0  0  0  0  0  0  0  0  0  0  0
    5.6762   -2.5826    0.0000 H   0  0  0  0  0  0  0  0  0  0  0  0
    6.0747   -1.8923    0.0000 H   0  0  0  0  0  0  0  0  0  0  0  0
    1.4631   -3.6900    0.0000 H   0  0  0  0  0  0  0  0  0  0  0  0
    2.8660   -6.1200    0.0000 H   0  0  0  0  0  0  0  0  0  0  0  0
    1.4631   -5.3100    0.0000 H   0  0  0  0  0  0  0  0  0  0  0  0
    3.4860   -2.5000    0.0000 H   0  0  0  0  0  0  0  0  0  0  0  0
    2.8660   -1.8800    0.0000 H   0  0  0  0  0  0  0  0  0  0  0  0
    2.2460   -2.5000    0.0000 H   0  0  0  0  0  0  0  0  0  0  0  0
    4.2881   -6.0369    0.0000 H   0  0  0  0  0  0  0  0  0  0  0  0
    5.1350   -5.8100    0.0000 H   0  0  0  0  0  0  0  0  0  0  0  0
    4.9081   -4.9631    0.0000 H   0  0  0  0  0  0  0  0  0  0  0  0
  1 16  1  0  0  0  0 
  1 21  1  0  0  0  0 
  2 10  2  0  0  0  0 
  3 22  1  0  0  0  0 
  3 25  1  0  0  0  0 
  4 12  2  0  0  0  0 
  5 25  2  0  0  0  0 
  6  7  1  0  0  0  0 
  6 10  1  0  0  0  0 
  6 11  1  0  0  0  0 
  7 12  1  0  0  0  0 
  7 33  1  0  0  0  0 
  8  9  1  0  0  0  0 
  8 10  1  0  0  0  0 
  8 29  1  0  0  0  0 
  8 30  1  0  0  0  0 
  9 12  1  0  0  0  0 
  9 31  1  0  0  0  0 
  9 32  1  0  0  0  0 
 11 13  2  0  0  0  0 
 11 14  1  0  0  0  0 
 13 17  1  0  0  0  0 
 13 34  1  0  0  0  0 
 14 18  2  0  0  0  0 
 14 35  1  0  0  0  0 
 15 17  2  0  0  0  0 
 15 18  1  0  0  0  0 
 15 25  1  0  0  0  0 
 16 19  2  0  0  0  0 
 16 20  1  0  0  0  0 
 17 36  1  0  0  0  0 
 18 37  1  0  0  0  0 
 19 23  1  0  0  0  0 
 19 27  1  0  0  0  0 
 20 24  2  0  0  0  0 
 20 28  1  0  0  0  0 
 21 22  1  0  0  0  0 
 21 38  1  0  0  0  0 
 21 39  1  0  0  0  0 
 22 40  1  0  0  0  0 
 22 41  1  0  0  0  0 
 23 26  2  0  0  0  0 
 23 42  1  0  0  0  0 
 24 26  1  0  0  0  0 
 24 43  1  0  0  0  0 
 26 44  1  0  0  0  0 
 27 45  1  0  0  0  0 
 27 46  1  0  0  0  0 
 27 47  1  0  0  0  0 
 28 48  1  0  0  0  0 
 28 49  1  0  0  0  0 
 28 50  1  0  0  0  0 
M  END
> <cdk:Title>
48329520

> <cdk:Remark>
null

> <PUBCHEM_COMPOUND_CID>
48329520

> <PUBCHEM_COMPOUND_CANONICALIZED>
1

> <PUBCHEM_CACTVS_COMPLEXITY>
563

> <PUBCHEM_CACTVS_HBOND_ACCEPTOR>
5

> <PUBCHEM_CACTVS_HBOND_DONOR>
1

> <PUBCHEM_CACTVS_ROTATABLE_BOND>
7

> <PUBCHEM_CACTVS_SUBSKEYS>
AAADceB7OAAAAAAAAAAAAAAAAAAAAAAAAAA8YIAAAAAAAAABQAAAHgAYAAAADAyhmAIyzoJiBACIAiXSWACCDAAlIgAaqAEEbMgNJjLEtZuGOSjk1BHK6Yed2WOeCAACAAAIAAAQAAQAABAAAAAAAAAAAA==

> <PUBCHEM_IUPAC_OPENEYE_NAME>
2-(2,6-dimethylphenoxy)ethyl 4-(3,6-dioxohexahydropyridazin-1-yl)benzoate

> <PUBCHEM_IUPAC_CAS_NAME>
4-(3,6-dioxo-1-diazinanyl)benzoic acid 2-(2,6-dimethylphenoxy)ethyl ester

> <PUBCHEM_IUPAC_NAME>
2-(2,6-dimethylphenoxy)ethyl 4-(3,6-dioxodiazinan-1-yl)benzoate

> <PUBCHEM_IUPAC_SYSTEMATIC_NAME>
2-(2,6-dimethylphenoxy)ethyl 4-[3,6-bis(oxidanylidene)-1,2-diazinan-1-yl]benzoate

> <PUBCHEM_IUPAC_TRADITIONAL_NAME>
4-(3,6-diketohexahydropyridazin-1-yl)benzoic acid 2-(2,6-dimethylphenoxy)ethyl ester

> <PUBCHEM_IUPAC_INCHI>
InChI=1S/C21H22N2O5/c1-14-4-3-5-15(2)20(14)27-12-13-28-21(26)16-6-8-17(9-7-16)23-19(25)11-10-18(24)22-23/h3-9H,10-13H2,1-2H3,(H,22,24)

> <PUBCHEM_IUPAC_INCHIKEY>
SIKMWJHTWNTULI-UHFFFAOYSA-N

> <PUBCHEM_XLOGP3_AA>
2.7

> <PUBCHEM_EXACT_MASS>
382.152872

> <PUBCHEM_MOLECULAR_FORMULA>
C21H22N2O5

> <PUBCHEM_MOLECULAR_WEIGHT>
382.40978

> <PUBCHEM_OPENEYE_CAN_SMILES>
CC1=C(C(=CC=C1)C)OCCOC(=O)C2=CC=C(C=C2)N3C(=O)CCC(=O)N3

> <PUBCHEM_OPENEYE_ISO_SMILES>
CC1=C(C(=CC=C1)C)OCCOC(=O)C2=CC=C(C=C2)N3C(=O)CCC(=O)N3

> <PUBCHEM_CACTVS_TPSA>
84.9

> <PUBCHEM_MONOISOTOPIC_WEIGHT>
382.152872

> <PUBCHEM_TOTAL_CHARGE>
0

> <PUBCHEM_HEAVY_ATOM_COUNT>
28

> <PUBCHEM_ATOM_DEF_STEREO_COUNT>
0

> <PUBCHEM_ATOM_UDEF_STEREO_COUNT>
0

> <PUBCHEM_BOND_DEF_STEREO_COUNT>
0

> <PUBCHEM_BOND_UDEF_STEREO_COUNT>
0

> <PUBCHEM_ISOTOPIC_ATOM_COUNT>
0

> <PUBCHEM_COMPONENT_COUNT>
1

> <PUBCHEM_CACTVS_TAUTO_COUNT>
6

> <PUBCHEM_COORDINATE_TYPE>
1

> <PUBCHEM_BONDANNOTATIONS>
11  13  8

$$$$
48329520
  CDK     1110141346

 50 52  0  0  0  0  0  0  0  0999 V2000
    4.5981   -3.5000    0.0000 O   0  0  0  0  0  0  0  0  0  0  0  0
    8.0622    3.5000    0.0000 O   0  0  0  0  0  0  0  0  0  0  0  0
    5.4641   -1.0000    0.0000 O   0  0  0  0  0  0  0  0  0  0  0  0
    4.5981    5.5000    0.0000 O   0  0  0  0  0  0  0  0  0  0  0  0
    7.1962   -1.0000    0.0000 O   0  0  0  0  0  0  0  0  0  0  0  0
    6.3301    3.5000    0.0000 N   0  0  0  0  0  0  0  0  0  0  0  0
    5.4641    4.0000    0.0000 N   0  0  0  0  0  0  0  0  0  0  0  0
    7.1962    5.0000    0.0000 C   0  0  0  0  0  0  0  0  0  0  0  0
    6.3301    5.5000    0.0000 C   0  0  0  0  0  0  0  0  0  0  0  0
    7.1962    4.0000    0.0000 C   0  0  0  0  0  0  0  0  0  0  0  0
    6.3301    2.5000    0.0000 C   0  0  0  0  0  0  0  0  0  0  0  0
    5.4641    5.0000    0.0000 C   0  0  0  0  0  0  0  0  0  0  0  0
    5.4641    2.0000    0.0000 C   0  0  0  0  0  0  0  0  0  0  0  0
    7.1962    2.0000    0.0000 C   0  0  0  0  0  0  0  0  0  0  0  0
    6.3301    0.5000    0.0000 C   0  0  0  0  0  0  0  0  0  0  0  0
    3.7320   -4.0000    0.0000 C   0  0  0  0  0  0  0  0  0  0  0  0
    5.4641    1.0000    0.0000 C   0  0  0  0  0  0  0  0  0  0  0  0
    7.1962    1.0000    0.0000 C   0  0  0  0  0  0  0  0  0  0  0  0
    2.8660   -3.5000    0.0000 C   0  0  0  0  0  0  0  0  0  0  0  0
    3.7320   -5.0000    0.0000 C   0  0  0  0  0  0  0  0  0  0  0  0
    4.5981   -2.5000    0.0000 C   0  0  0  0  0  0  0  0  0  0  0  0
    5.4641   -2.0000    0.0000 C   0  0  0  0  0  0  0  0  0  0  0  0
    2.0000   -4.0000    0.0000 C   0  0  0  0  0  0  0  0  0  0  0  0
    2.8660   -5.5000    0.0000 C   0  0  0  0  0  0  0  0  0  0  0  0
    6.3301   -0.5000    0.0000 C   0  0  0  0  0  0  0  0  0  0  0  0
    2.0000   -5.0000    0.0000 C   0  0  0  0  0  0  0  0  0  0  0  0
    2.8660   -2.5000    0.0000 C   0  0  0  0  0  0  0  0  0  0  0  0
    4.5981   -5.5000    0.0000 C   0  0  0  0  0  0  0  0  0  0  0  0
    7.8067    4.8923    0.0000 H   0  0  0  0  0  0  0  0  0  0  0  0
    7.4082    5.5826    0.0000 H   0  0  0  0  0  0  0  0  0  0  0  0
    6.7287    5.9750    0.0000 H   0  0  0  0  0  0  0  0  0  0  0  0
    5.9316    5.9750    0.0000 H   0  0  0  0  0  0  0  0  0  0  0  0
    4.9272    3.6900    0.0000 H   0  0  0  0  0  0  0  0  0  0  0  0
    4.9272    2.3100    0.0000 H   0  0  0  0  0  0  0  0  0  0  0  0
    7.7331    2.3100    0.0000 H   0  0  0  0  0  0  0  0  0  0  0  0
    4.9272    0.6900    0.0000 H   0  0  0  0  0  0  0  0  0  0  0  0
    7.7331    0.6900    0.0000 H   0  0  0  0  0  0  0  0  0  0  0  0
    4.3860   -1.9174    0.0000 H   0  0  0  0  0  0  0  0  0  0  0  0
    3.9875   -2.6077    0.0000 H   0  0  0  0  0  0  0  0  0  0  0  0
    5.6762   -2.5826    0.0000 H   0  0  0  0  0  0  0  0  0  0  0  0
    6.0747   -1.8923    0.0000 H   0  0  0  0  0  0  0  0  0  0  0  0
    1.4631   -3.6900    0.0000 H   0  0  0  0  0  0  0  0  0  0  0  0
    2.8660   -6.1200    0.0000 H   0  0  0  0  0  0  0  0  0  0  0  0
    1.4631   -5.3100    0.0000 H   0  0  0  0  0  0  0  0  0  0  0  0
    3.4860   -2.5000    0.0000 H   0  0  0  0  0  0  0  0  0  0  0  0
    2.8660   -1.8800    0.0000 H   0  0  0  0  0  0  0  0  0  0  0  0
    2.2460   -2.5000    0.0000 H   0  0  0  0  0  0  0  0  0  0  0  0
    4.2881   -6.0369    0.0000 H   0  0  0  0  0  0  0  0  0  0  0  0
    5.1350   -5.8100    0.0000 H   0  0  0  0  0  0  0  0  0  0  0  0
    4.9081   -4.9631    0.0000 H   0  0  0  0  0  0  0  0  0  0  0  0
  1 16  1  0  0  0  0 
  1 21  1  0  0  0  0 
  2 10  2  0  0  0  0 
  3 22  1  0  0  0  0 
  3 25  1  0  0  0  0 
  4 12  2  0  0  0  0 
  5 25  2  0  0  0  0 
  6  7  1  0  0  0  0 
  6 10  1  0  0  0  0 
  6 11  1  0  0  0  0 
  7 12  1  0  0  0  0 
  7 33  1  0  0  0  0 
  8  9  1  0  0  0  0 
  8 10  1  0  0  0  0 
  8 29  1  0  0  0  0 
  8 30  1  0  0  0  0 
  9 12  1  0  0  0  0 
  9 31  1  0  0  0  0 
  9 32  1  0  0  0  0 
 11 13  2  0  0  0  0 
 11 14  1  0  0  0  0 
 13 17  1  0  0  0  0 
 13 34  1  0  0  0  0 
 14 18  2  0  0  0  0 
 14 35  1  0  0  0  0 
 15 17  2  0  0  0  0 
 15 18  1  0  0  0  0 
 15 25  1  0  0  0  0 
 16 19  2  0  0  0  0 
 16 20  1  0  0  0  0 
 17 36  1  0  0  0  0 
 18 37  1  0  0  0  0 
 19 23  1  0  0  0  0 
 19 27  1  0  0  0  0 
 20 24  2  0  0  0  0 
 20 28  1  0  0  0  0 
 21 22  1  0  0  0  0 
 21 38  1  0  0  0  0 
 21 39  1  0  0  0  0 
 22 40  1  0  0  0  0 
 22 41  1  0  0  0  0 
 23 26  2  0  0  0  0 
 23 42  1  0  0  0  0 
 24 26  1  0  0  0  0 
 24 43  1  0  0  0  0 
 26 44  1  0  0  0  0 
 27 45  1  0  0  0  0 
 27 46  1  0  0  0  0 
 27 47  1  0  0  0  0 
 28 48  1  0  0  0  0 
 28 49  1  0  0  0  0 
 28 50  1  0  0  0  0 
M  END
> <cdk:Title>
48329520

> <cdk:Remark>
null

> <PUBCHEM_COMPOUND_CID>
48329520

> <PUBCHEM_COMPOUND_CANONICALIZED>
1

> <PUBCHEM_CACTVS_COMPLEXITY>
563

> <PUBCHEM_CACTVS_HBOND_ACCEPTOR>
5

> <PUBCHEM_CACTVS_HBOND_DONOR>
1

> <PUBCHEM_CACTVS_ROTATABLE_BOND>
7

> <PUBCHEM_CACTVS_SUBSKEYS>
AAADceB7OAAAAAAAAAAAAAAAAAAAAAAAAAA8YIAAAAAAAAABQAAAHgAYAAAADAyhmAIyzoJiBACIAiXSWACCDAAlIgAaqAEEbMgNJjLEtZuGOSjk1BHK6Yed2WOeCAACAAAIAAAQAAQAABAAAAAAAAAAAA==

> <PUBCHEM_IUPAC_OPENEYE_NAME>
2-(2,6-dimethylphenoxy)ethyl 4-(3,6-dioxohexahydropyridazin-1-yl)benzoate

> <PUBCHEM_IUPAC_CAS_NAME>
4-(3,6-dioxo-1-diazinanyl)benzoic acid 2-(2,6-dimethylphenoxy)ethyl ester

> <PUBCHEM_IUPAC_NAME>
2-(2,6-dimethylphenoxy)ethyl 4-(3,6-dioxodiazinan-1-yl)benzoate

> <PUBCHEM_IUPAC_SYSTEMATIC_NAME>
2-(2,6-dimethylphenoxy)ethyl 4-[3,6-bis(oxidanylidene)-1,2-diazinan-1-yl]benzoate

> <PUBCHEM_IUPAC_TRADITIONAL_NAME>
4-(3,6-diketohexahydropyridazin-1-yl)benzoic acid 2-(2,6-dimethylphenoxy)ethyl ester

> <PUBCHEM_IUPAC_INCHI>
InChI=1S/C21H22N2O5/c1-14-4-3-5-15(2)20(14)27-12-13-28-21(26)16-6-8-17(9-7-16)23-19(25)11-10-18(24)22-23/h3-9H,10-13H2,1-2H3,(H,22,24)

> <PUBCHEM_IUPAC_INCHIKEY>
SIKMWJHTWNTULI-UHFFFAOYSA-N

> <PUBCHEM_XLOGP3_AA>
2.7

> <PUBCHEM_EXACT_MASS>
382.152872

> <PUBCHEM_MOLECULAR_FORMULA>
C21H22N2O5

> <PUBCHEM_MOLECULAR_WEIGHT>
382.40978

> <PUBCHEM_OPENEYE_CAN_SMILES>
CC1=C(C(=CC=C1)C)OCCOC(=O)C2=CC=C(C=C2)N3C(=O)CCC(=O)N3

> <PUBCHEM_OPENEYE_ISO_SMILES>
CC1=C(C(=CC=C1)C)OCCOC(=O)C2=CC=C(C=C2)N3C(=O)CCC(=O)N3

> <PUBCHEM_CACTVS_TPSA>
84.9

> <PUBCHEM_MONOISOTOPIC_WEIGHT>
382.152872

> <PUBCHEM_TOTAL_CHARGE>
0

> <PUBCHEM_HEAVY_ATOM_COUNT>
28

> <PUBCHEM_ATOM_DEF_STEREO_COUNT>
0

> <PUBCHEM_ATOM_UDEF_STEREO_COUNT>
0

> <PUBCHEM_BOND_DEF_STEREO_COUNT>
0

> <PUBCHEM_BOND_UDEF_STEREO_COUNT>
0

> <PUBCHEM_ISOTOPIC_ATOM_COUNT>
0

> <PUBCHEM_COMPONENT_COUNT>
1

> <PUBCHEM_CACTVS_TAUTO_COUNT>
6

> <PUBCHEM_COORDINATE_TYPE>
1

> <PUBCHEM_BONDANNOTATIONS>
11  13  8

$$$$
48329520
  CDK     1110141352

 50 52  0  0  0  0  0  0  0  0999 V2000
    4.5981   -3.5000    0.0000 O   0  0  0  0  0  0  0  0  0  0  0  0
    8.0622    3.5000    0.0000 O   0  0  0  0  0  0  0  0  0  0  0  0
    5.4641   -1.0000    0.0000 O   0  0  0  0  0  0  0  0  0  0  0  0
    4.5981    5.5000    0.0000 O   0  0  0  0  0  0  0  0  0  0  0  0
    7.1962   -1.0000    0.0000 O   0  0  0  0  0  0  0  0  0  0  0  0
    6.3301    3.5000    0.0000 N   0  0  0  0  0  0  0  0  0  0  0  0
    5.4641    4.0000    0.0000 N   0  0  0  0  0  0  0  0  0  0  0  0
    7.1962    5.0000    0.0000 C   0  0  0  0  0  0  0  0  0  0  0  0
    6.3301    5.5000    0.0000 C   0  0  0  0  0  0  0  0  0  0  0  0
    7.1962    4.0000    0.0000 C   0  0  0  0  0  0  0  0  0  0  0  0
    6.3301    2.5000    0.0000 C   0  0  0  0  0  0  0  0  0  0  0  0
    5.4641    5.0000    0.0000 C   0  0  0  0  0  0  0  0  0  0  0  0
    5.4641    2.0000    0.0000 C   0  0  0  0  0  0  0  0  0  0  0  0
    7.1962    2.0000    0.0000 C   0  0  0  0  0  0  0  0  0  0  0  0
    6.3301    0.5000    0.0000 C   0  0  0  0  0  0  0  0  0  0  0  0
    3.7320   -4.0000    0.0000 C   0  0  0  0  0  0  0  0  0  0  0  0
    5.4641    1.0000    0.0000 C   0  0  0  0  0  0  0  0  0  0  0  0
    7.1962    1.0000    0.0000 C   0  0  0  0  0  0  0  0  0  0  0  0
    2.8660   -3.5000    0.0000 C   0  0  0  0  0  0  0  0  0  0  0  0
    3.7320   -5.0000    0.0000 C   0  0  0  0  0  0  0  0  0  0  0  0
    4.5981   -2.5000    0.0000 C   0  0  0  0  0  0  0  0  0  0  0  0
    5.4641   -2.0000    0.0000 C   0  0  0  0  0  0  0  0  0  0  0  0
    2.0000   -4.0000    0.0000 C   0  0  0  0  0  0  0  0  0  0  0  0
    2.8660   -5.5000    0.0000 C   0  0  0  0  0  0  0  0  0  0  0  0
    6.3301   -0.5000    0.0000 C   0  0  0  0  0  0  0  0  0  0  0  0
    2.0000   -5.0000    0.0000 C   0  0  0  0  0  0  0  0  0  0  0  0
    2.8660   -2.5000    0.0000 C   0  0  0  0  0  0  0  0  0  0  0  0
    4.5981   -5.5000    0.0000 C   0  0  0  0  0  0  0  0  0  0  0  0
    7.8067    4.8923    0.0000 H   0  0  0  0  0  0  0  0  0  0  0  0
    7.4082    5.5826    0.0000 H   0  0  0  0  0  0  0  0  0  0  0  0
    6.7287    5.9750    0.0000 H   0  0  0  0  0  0  0  0  0  0  0  0
    5.9316    5.9750    0.0000 H   0  0  0  0  0  0  0  0  0  0  0  0
    4.9272    3.6900    0.0000 H   0  0  0  0  0  0  0  0  0  0  0  0
    4.9272    2.3100    0.0000 H   0  0  0  0  0  0  0  0  0  0  0  0
    7.7331    2.3100    0.0000 H   0  0  0  0  0  0  0  0  0  0  0  0
    4.9272    0.6900    0.0000 H   0  0  0  0  0  0  0  0  0  0  0  0
    7.7331    0.6900    0.0000 H   0  0  0  0  0  0  0  0  0  0  0  0
    4.3860   -1.9174    0.0000 H   0  0  0  0  0  0  0  0  0  0  0  0
    3.9875   -2.6077    0.0000 H   0  0  0  0  0  0  0  0  0  0  0  0
    5.6762   -2.5826    0.0000 H   0  0  0  0  0  0  0  0  0  0  0  0
    6.0747   -1.8923    0.0000 H   0  0  0  0  0  0  0  0  0  0  0  0
    1.4631   -3.6900    0.0000 H   0  0  0  0  0  0  0  0  0  0  0  0
    2.8660   -6.1200    0.0000 H   0  0  0  0  0  0  0  0  0  0  0  0
    1.4631   -5.3100    0.0000 H   0  0  0  0  0  0  0  0  0  0  0  0
    3.4860   -2.5000    0.0000 H   0  0  0  0  0  0  0  0  0  0  0  0
    2.8660   -1.8800    0.0000 H   0  0  0  0  0  0  0  0  0  0  0  0
    2.2460   -2.5000    0.0000 H   0  0  0  0  0  0  0  0  0  0  0  0
    4.2881   -6.0369    0.0000 H   0  0  0  0  0  0  0  0  0  0  0  0
    5.1350   -5.8100    0.0000 H   0  0  0  0  0  0  0  0  0  0  0  0
    4.9081   -4.9631    0.0000 H   0  0  0  0  0  0  0  0  0  0  0  0
  1 16  1  0  0  0  0 
  1 21  1  0  0  0  0 
  2 10  2  0  0  0  0 
  3 22  1  0  0  0  0 
  3 25  1  0  0  0  0 
  4 12  2  0  0  0  0 
  5 25  2  0  0  0  0 
  6  7  1  0  0  0  0 
  6 10  1  0  0  0  0 
  6 11  1  0  0  0  0 
  7 12  1  0  0  0  0 
  7 33  1  0  0  0  0 
  8  9  1  0  0  0  0 
  8 10  1  0  0  0  0 
  8 29  1  0  0  0  0 
  8 30  1  0  0  0  0 
  9 12  1  0  0  0  0 
  9 31  1  0  0  0  0 
  9 32  1  0  0  0  0 
 11 13  2  0  0  0  0 
 11 14  1  0  0  0  0 
 13 17  1  0  0  0  0 
 13 34  1  0  0  0  0 
 14 18  2  0  0  0  0 
 14 35  1  0  0  0  0 
 15 17  2  0  0  0  0 
 15 18  1  0  0  0  0 
 15 25  1  0  0  0  0 
 16 19  2  0  0  0  0 
 16 20  1  0  0  0  0 
 17 36  1  0  0  0  0 
 18 37  1  0  0  0  0 
 19 23  1  0  0  0  0 
 19 27  1  0  0  0  0 
 20 24  2  0  0  0  0 
 20 28  1  0  0  0  0 
 21 22  1  0  0  0  0 
 21 38  1  0  0  0  0 
 21 39  1  0  0  0  0 
 22 40  1  0  0  0  0 
 22 41  1  0  0  0  0 
 23 26  2  0  0  0  0 
 23 42  1  0  0  0  0 
 24 26  1  0  0  0  0 
 24 43  1  0  0  0  0 
 26 44  1  0  0  0  0 
 27 45  1  0  0  0  0 
 27 46  1  0  0  0  0 
 27 47  1  0  0  0  0 
 28 48  1  0  0  0  0 
 28 49  1  0  0  0  0 
 28 50  1  0  0  0  0 
M  END
> <cdk:Title>
48329520

> <cdk:Remark>
null

> <PUBCHEM_COMPOUND_CID>
48329520

> <PUBCHEM_COMPOUND_CANONICALIZED>
1

> <PUBCHEM_CACTVS_COMPLEXITY>
563

> <PUBCHEM_CACTVS_HBOND_ACCEPTOR>
5

> <PUBCHEM_CACTVS_HBOND_DONOR>
1

> <PUBCHEM_CACTVS_ROTATABLE_BOND>
7

> <PUBCHEM_CACTVS_SUBSKEYS>
AAADceB7OAAAAAAAAAAAAAAAAAAAAAAAAAA8YIAAAAAAAAABQAAAHgAYAAAADAyhmAIyzoJiBACIAiXSWACCDAAlIgAaqAEEbMgNJjLEtZuGOSjk1BHK6Yed2WOeCAACAAAIAAAQAAQAABAAAAAAAAAAAA==

> <PUBCHEM_IUPAC_OPENEYE_NAME>
2-(2,6-dimethylphenoxy)ethyl 4-(3,6-dioxohexahydropyridazin-1-yl)benzoate

> <PUBCHEM_IUPAC_CAS_NAME>
4-(3,6-dioxo-1-diazinanyl)benzoic acid 2-(2,6-dimethylphenoxy)ethyl ester

> <PUBCHEM_IUPAC_NAME>
2-(2,6-dimethylphenoxy)ethyl 4-(3,6-dioxodiazinan-1-yl)benzoate

> <PUBCHEM_IUPAC_SYSTEMATIC_NAME>
2-(2,6-dimethylphenoxy)ethyl 4-[3,6-bis(oxidanylidene)-1,2-diazinan-1-yl]benzoate

> <PUBCHEM_IUPAC_TRADITIONAL_NAME>
4-(3,6-diketohexahydropyridazin-1-yl)benzoic acid 2-(2,6-dimethylphenoxy)ethyl ester

> <PUBCHEM_IUPAC_INCHI>
InChI=1S/C21H22N2O5/c1-14-4-3-5-15(2)20(14)27-12-13-28-21(26)16-6-8-17(9-7-16)23-19(25)11-10-18(24)22-23/h3-9H,10-13H2,1-2H3,(H,22,24)

> <PUBCHEM_IUPAC_INCHIKEY>
SIKMWJHTWNTULI-UHFFFAOYSA-N

> <PUBCHEM_XLOGP3_AA>
2.7

> <PUBCHEM_EXACT_MASS>
382.152872

> <PUBCHEM_MOLECULAR_FORMULA>
C21H22N2O5

> <PUBCHEM_MOLECULAR_WEIGHT>
382.40978

> <PUBCHEM_OPENEYE_CAN_SMILES>
CC1=C(C(=CC=C1)C)OCCOC(=O)C2=CC=C(C=C2)N3C(=O)CCC(=O)N3

> <PUBCHEM_OPENEYE_ISO_SMILES>
CC1=C(C(=CC=C1)C)OCCOC(=O)C2=CC=C(C=C2)N3C(=O)CCC(=O)N3

> <PUBCHEM_CACTVS_TPSA>
84.9

> <PUBCHEM_MONOISOTOPIC_WEIGHT>
382.152872

> <PUBCHEM_TOTAL_CHARGE>
0

> <PUBCHEM_HEAVY_ATOM_COUNT>
28

> <PUBCHEM_ATOM_DEF_STEREO_COUNT>
0

> <PUBCHEM_ATOM_UDEF_STEREO_COUNT>
0

> <PUBCHEM_BOND_DEF_STEREO_COUNT>
0

> <PUBCHEM_BOND_UDEF_STEREO_COUNT>
0

> <PUBCHEM_ISOTOPIC_ATOM_COUNT>
0

> <PUBCHEM_COMPONENT_COUNT>
1

> <PUBCHEM_CACTVS_TAUTO_COUNT>
6

> <PUBCHEM_COORDINATE_TYPE>
1

> <PUBCHEM_BONDANNOTATIONS>
11  13  8

$$$$
48329520
  CDK     1110141358

 50 52  0  0  0  0  0  0  0  0999 V2000
    4.5981   -3.5000    0.0000 O   0  0  0  0  0  0  0  0  0  0  0  0
    8.0622    3.5000    0.0000 O   0  0  0  0  0  0  0  0  0  0  0  0
    5.4641   -1.0000    0.0000 O   0  0  0  0  0  0  0  0  0  0  0  0
    4.5981    5.5000    0.0000 O   0  0  0  0  0  0  0  0  0  0  0  0
    7.1962   -1.0000    0.0000 O   0  0  0  0  0  0  0  0  0  0  0  0
    6.3301    3.5000    0.0000 N   0  0  0  0  0  0  0  0  0  0  0  0
    5.4641    4.0000    0.0000 N   0  0  0  0  0  0  0  0  0  0  0  0
    7.1962    5.0000    0.0000 C   0  0  0  0  0  0  0  0  0  0  0  0
    6.3301    5.5000    0.0000 C   0  0  0  0  0  0  0  0  0  0  0  0
    7.1962    4.0000    0.0000 C   0  0  0  0  0  0  0  0  0  0  0  0
    6.3301    2.5000    0.0000 C   0  0  0  0  0  0  0  0  0  0  0  0
    5.4641    5.0000    0.0000 C   0  0  0  0  0  0  0  0  0  0  0  0
    5.4641    2.0000    0.0000 C   0  0  0  0  0  0  0  0  0  0  0  0
    7.1962    2.0000    0.0000 C   0  0  0  0  0  0  0  0  0  0  0  0
    6.3301    0.5000    0.0000 C   0  0  0  0  0  0  0  0  0  0  0  0
    3.7320   -4.0000    0.0000 C   0  0  0  0  0  0  0  0  0  0  0  0
    5.4641    1.0000    0.0000 C   0  0  0  0  0  0  0  0  0  0  0  0
    7.1962    1.0000    0.0000 C   0  0  0  0  0  0  0  0  0  0  0  0
    2.8660   -3.5000    0.0000 C   0  0  0  0  0  0  0  0  0  0  0  0
    3.7320   -5.0000    0.0000 C   0  0  0  0  0  0  0  0  0  0  0  0
    4.5981   -2.5000    0.0000 C   0  0  0  0  0  0  0  0  0  0  0  0
    5.4641   -2.0000    0.0000 C   0  0  0  0  0  0  0  0  0  0  0  0
    2.0000   -4.0000    0.0000 C   0  0  0  0  0  0  0  0  0  0  0  0
    2.8660   -5.5000    0.0000 C   0  0  0  0  0  0  0  0  0  0  0  0
    6.3301   -0.5000    0.0000 C   0  0  0  0  0  0  0  0  0  0  0  0
    2.0000   -5.0000    0.0000 C   0  0  0  0  0  0  0  0  0  0  0  0
    2.8660   -2.5000    0.0000 C   0  0  0  0  0  0  0  0  0  0  0  0
    4.5981   -5.5000    0.0000 C   0  0  0  0  0  0  0  0  0  0  0  0
    7.8067    4.8923    0.0000 H   0  0  0  0  0  0  0  0  0  0  0  0
    7.4082    5.5826    0.0000 H   0  0  0  0  0  0  0  0  0  0  0  0
    6.7287    5.9750    0.0000 H   0  0  0  0  0  0  0  0  0  0  0  0
    5.9316    5.9750    0.0000 H   0  0  0  0  0  0  0  0  0  0  0  0
    4.9272    3.6900    0.0000 H   0  0  0  0  0  0  0  0  0  0  0  0
    4.9272    2.3100    0.0000 H   0  0  0  0  0  0  0  0  0  0  0  0
    7.7331    2.3100    0.0000 H   0  0  0  0  0  0  0  0  0  0  0  0
    4.9272    0.6900    0.0000 H   0  0  0  0  0  0  0  0  0  0  0  0
    7.7331    0.6900    0.0000 H   0  0  0  0  0  0  0  0  0  0  0  0
    4.3860   -1.9174    0.0000 H   0  0  0  0  0  0  0  0  0  0  0  0
    3.9875   -2.6077    0.0000 H   0  0  0  0  0  0  0  0  0  0  0  0
    5.6762   -2.5826    0.0000 H   0  0  0  0  0  0  0  0  0  0  0  0
    6.0747   -1.8923    0.0000 H   0  0  0  0  0  0  0  0  0  0  0  0
    1.4631   -3.6900    0.0000 H   0  0  0  0  0  0  0  0  0  0  0  0
    2.8660   -6.1200    0.0000 H   0  0  0  0  0  0  0  0  0  0  0  0
    1.4631   -5.3100    0.0000 H   0  0  0  0  0  0  0  0  0  0  0  0
    3.4860   -2.5000    0.0000 H   0  0  0  0  0  0  0  0  0  0  0  0
    2.8660   -1.8800    0.0000 H   0  0  0  0  0  0  0  0  0  0  0  0
    2.2460   -2.5000    0.0000 H   0  0  0  0  0  0  0  0  0  0  0  0
    4.2881   -6.0369    0.0000 H   0  0  0  0  0  0  0  0  0  0  0  0
    5.1350   -5.8100    0.0000 H   0  0  0  0  0  0  0  0  0  0  0  0
    4.9081   -4.9631    0.0000 H   0  0  0  0  0  0  0  0  0  0  0  0
  1 16  1  0  0  0  0 
  1 21  1  0  0  0  0 
  2 10  2  0  0  0  0 
  3 22  1  0  0  0  0 
  3 25  1  0  0  0  0 
  4 12  2  0  0  0  0 
  5 25  2  0  0  0  0 
  6  7  1  0  0  0  0 
  6 10  1  0  0  0  0 
  6 11  1  0  0  0  0 
  7 12  1  0  0  0  0 
  7 33  1  0  0  0  0 
  8  9  1  0  0  0  0 
  8 10  1  0  0  0  0 
  8 29  1  0  0  0  0 
  8 30  1  0  0  0  0 
  9 12  1  0  0  0  0 
  9 31  1  0  0  0  0 
  9 32  1  0  0  0  0 
 11 13  2  0  0  0  0 
 11 14  1  0  0  0  0 
 13 17  1  0  0  0  0 
 13 34  1  0  0  0  0 
 14 18  2  0  0  0  0 
 14 35  1  0  0  0  0 
 15 17  2  0  0  0  0 
 15 18  1  0  0  0  0 
 15 25  1  0  0  0  0 
 16 19  2  0  0  0  0 
 16 20  1  0  0  0  0 
 17 36  1  0  0  0  0 
 18 37  1  0  0  0  0 
 19 23  1  0  0  0  0 
 19 27  1  0  0  0  0 
 20 24  2  0  0  0  0 
 20 28  1  0  0  0  0 
 21 22  1  0  0  0  0 
 21 38  1  0  0  0  0 
 21 39  1  0  0  0  0 
 22 40  1  0  0  0  0 
 22 41  1  0  0  0  0 
 23 26  2  0  0  0  0 
 23 42  1  0  0  0  0 
 24 26  1  0  0  0  0 
 24 43  1  0  0  0  0 
 26 44  1  0  0  0  0 
 27 45  1  0  0  0  0 
 27 46  1  0  0  0  0 
 27 47  1  0  0  0  0 
 28 48  1  0  0  0  0 
 28 49  1  0  0  0  0 
 28 50  1  0  0  0  0 
M  END
> <cdk:Title>
48329520

> <cdk:Remark>
null

> <PUBCHEM_COMPOUND_CID>
48329520

> <PUBCHEM_COMPOUND_CANONICALIZED>
1

> <PUBCHEM_CACTVS_COMPLEXITY>
563

> <PUBCHEM_CACTVS_HBOND_ACCEPTOR>
5

> <PUBCHEM_CACTVS_HBOND_DONOR>
1

> <PUBCHEM_CACTVS_ROTATABLE_BOND>
7

> <PUBCHEM_CACTVS_SUBSKEYS>
AAADceB7OAAAAAAAAAAAAAAAAAAAAAAAAAA8YIAAAAAAAAABQAAAHgAYAAAADAyhmAIyzoJiBACIAiXSWACCDAAlIgAaqAEEbMgNJjLEtZuGOSjk1BHK6Yed2WOeCAACAAAIAAAQAAQAABAAAAAAAAAAAA==

> <PUBCHEM_IUPAC_OPENEYE_NAME>
2-(2,6-dimethylphenoxy)ethyl 4-(3,6-dioxohexahydropyridazin-1-yl)benzoate

> <PUBCHEM_IUPAC_CAS_NAME>
4-(3,6-dioxo-1-diazinanyl)benzoic acid 2-(2,6-dimethylphenoxy)ethyl ester

> <PUBCHEM_IUPAC_NAME>
2-(2,6-dimethylphenoxy)ethyl 4-(3,6-dioxodiazinan-1-yl)benzoate

> <PUBCHEM_IUPAC_SYSTEMATIC_NAME>
2-(2,6-dimethylphenoxy)ethyl 4-[3,6-bis(oxidanylidene)-1,2-diazinan-1-yl]benzoate

> <PUBCHEM_IUPAC_TRADITIONAL_NAME>
4-(3,6-diketohexahydropyridazin-1-yl)benzoic acid 2-(2,6-dimethylphenoxy)ethyl ester

> <PUBCHEM_IUPAC_INCHI>
InChI=1S/C21H22N2O5/c1-14-4-3-5-15(2)20(14)27-12-13-28-21(26)16-6-8-17(9-7-16)23-19(25)11-10-18(24)22-23/h3-9H,10-13H2,1-2H3,(H,22,24)

> <PUBCHEM_IUPAC_INCHIKEY>
SIKMWJHTWNTULI-UHFFFAOYSA-N

> <PUBCHEM_XLOGP3_AA>
2.7

> <PUBCHEM_EXACT_MASS>
382.152872

> <PUBCHEM_MOLECULAR_FORMULA>
C21H22N2O5

> <PUBCHEM_MOLECULAR_WEIGHT>
382.40978

> <PUBCHEM_OPENEYE_CAN_SMILES>
CC1=C(C(=CC=C1)C)OCCOC(=O)C2=CC=C(C=C2)N3C(=O)CCC(=O)N3

> <PUBCHEM_OPENEYE_ISO_SMILES>
CC1=C(C(=CC=C1)C)OCCOC(=O)C2=CC=C(C=C2)N3C(=O)CCC(=O)N3

> <PUBCHEM_CACTVS_TPSA>
84.9

> <PUBCHEM_MONOISOTOPIC_WEIGHT>
382.152872

> <PUBCHEM_TOTAL_CHARGE>
0

> <PUBCHEM_HEAVY_ATOM_COUNT>
28

> <PUBCHEM_ATOM_DEF_STEREO_COUNT>
0

> <PUBCHEM_ATOM_UDEF_STEREO_COUNT>
0

> <PUBCHEM_BOND_DEF_STEREO_COUNT>
0

> <PUBCHEM_BOND_UDEF_STEREO_COUNT>
0

> <PUBCHEM_ISOTOPIC_ATOM_COUNT>
0

> <PUBCHEM_COMPONENT_COUNT>
1

> <PUBCHEM_CACTVS_TAUTO_COUNT>
6

> <PUBCHEM_COORDINATE_TYPE>
1

> <PUBCHEM_BONDANNOTATIONS>
11  13  8

$$$$
