61561031
  CDK     1110140948

 40 42  0  0  0  0  0  0  0  0999 V2000
    7.1137    0.5034    0.0000 O   0  0  0  0  0  0  0  0  0  0  0  0
    5.1137    0.5034    0.0000 N   0  0  3  0  0  0  0  0  0  0  0  0
    7.1137   -1.2287    0.0000 N   0  0  0  0  0  0  0  0  0  0  0  0
   10.1137    0.5034    0.0000 N   0  0  0  0  0  0  0  0  0  0  0  0
    3.9735    1.9781    0.0000 C   0  0  3  0  0  0  0  0  0  0  0  0
    3.7147    1.0122    0.0000 C   0  0  3  0  0  0  0  0  0  0  0  0
    3.2369    2.9607    0.0000 C   0  0  0  0  0  0  0  0  0  0  0  0
    2.0000    1.3599    0.0000 C   0  0  0  0  0  0  0  0  0  0  0  0
    2.3420    0.4202    0.0000 C   0  0  0  0  0  0  0  0  0  0  0  0
    5.3725    1.4693    0.0000 C   0  0  0  0  0  0  0  0  0  0  0  0
    5.6137   -0.3627    0.0000 C   0  0  0  0  0  0  0  0  0  0  0  0
    6.6137   -0.3627    0.0000 C   0  0  0  0  0  0  0  0  0  0  0  0
    8.1137   -1.2287    0.0000 C   0  0  0  0  0  0  0  0  0  0  0  0
    8.6137   -2.0947    0.0000 C   0  0  0  0  0  0  0  0  0  0  0  0
    8.6137   -0.3627    0.0000 C   0  0  0  0  0  0  0  0  0  0  0  0
    9.6137   -2.0947    0.0000 C   0  0  0  0  0  0  0  0  0  0  0  0
    9.6137   -0.3627    0.0000 C   0  0  0  0  0  0  0  0  0  0  0  0
    8.1137   -2.9607    0.0000 C   0  0  0  0  0  0  0  0  0  0  0  0
   10.1137   -1.2287    0.0000 C   0  0  0  0  0  0  0  0  0  0  0  0
    3.9595    1.3583    0.0000 H   0  0  0  0  0  0  0  0  0  0  0  0
    3.7328    0.3925    0.0000 H   0  0  0  0  0  0  0  0  0  0  0  0
    3.5547    3.4931    0.0000 H   0  0  0  0  0  0  0  0  0  0  0  0
    2.6238    3.0527    0.0000 H   0  0  0  0  0  0  0  0  0  0  0  0
    1.8057    1.9486    0.0000 H   0  0  0  0  0  0  0  0  0  0  0  0
    1.4142    1.1567    0.0000 H   0  0  0  0  0  0  0  0  0  0  0  0
    1.7636    0.1969    0.0000 H   0  0  0  0  0  0  0  0  0  0  0  0
    2.5765   -0.1538    0.0000 H   0  0  0  0  0  0  0  0  0  0  0  0
    5.9664    1.2915    0.0000 H   0  0  0  0  0  0  0  0  0  0  0  0
    5.5674    2.0579    0.0000 H   0  0  0  0  0  0  0  0  0  0  0  0
    5.0310   -0.5747    0.0000 H   0  0  0  0  0  0  0  0  0  0  0  0
    5.7213   -0.9732    0.0000 H   0  0  0  0  0  0  0  0  0  0  0  0
    6.8037   -1.7656    0.0000 H   0  0  0  0  0  0  0  0  0  0  0  0
    8.3037    0.1743    0.0000 H   0  0  0  0  0  0  0  0  0  0  0  0
    9.9237   -2.6316    0.0000 H   0  0  0  0  0  0  0  0  0  0  0  0
    7.5767   -2.6507    0.0000 H   0  0  0  0  0  0  0  0  0  0  0  0
    7.8037   -3.4977    0.0000 H   0  0  0  0  0  0  0  0  0  0  0  0
    8.6506   -3.2707    0.0000 H   0  0  0  0  0  0  0  0  0  0  0  0
   10.7337   -1.2287    0.0000 H   0  0  0  0  0  0  0  0  0  0  0  0
   10.7337    0.5034    0.0000 H   0  0  0  0  0  0  0  0  0  0  0  0
    9.8037    1.0403    0.0000 H   0  0  0  0  0  0  0  0  0  0  0  0
  1 12  2  0  0  0  0 
  2  6  1  0  0  0  0 
  2 10  1  0  0  0  0 
  2 11  1  0  0  0  0 
  3 12  1  0  0  0  0 
  3 13  1  0  0  0  0 
  3 32  1  0  0  0  0 
  4 17  1  0  0  0  0 
  4 39  1  0  0  0  0 
  4 40  1  0  0  0  0 
  5  7  1  0  0  0  0 
  5  8  1  0  0  0  0 
  5 10  1  0  0  0  0 
  5 20  1  0  0  0  0 
  6  7  1  0  0  0  0 
  6  9  1  0  0  0  0 
  6 21  1  0  0  0  0 
  7 22  1  0  0  0  0 
  7 23  1  0  0  0  0 
  8  9  1  0  0  0  0 
  8 24  1  0  0  0  0 
  8 25  1  0  0  0  0 
  9 26  1  0  0  0  0 
  9 27  1  0  0  0  0 
 10 28  1  0  0  0  0 
 10 29  1  0  0  0  0 
 11 12  1  0  0  0  0 
 11 30  1  0  0  0  0 
 11 31  1  0  0  0  0 
 13 14  2  0  0  0  0 
 13 15  1  0  0  0  0 
 14 16  1  0  0  0  0 
 14 18  1  0  0  0  0 
 15 17  2  0  0  0  0 
 15 33  1  0  0  0  0 
 16 19  2  0  0  0  0 
 16 34  1  0  0  0  0 
 17 19  1  0  0  0  0 
 18 35  1  0  0  0  0 
 18 36  1  0  0  0  0 
 18 37  1  0  0  0  0 
 19 38  1  0  0  0  0 
M  END
> <cdk:Title>
61561031

> <cdk:Remark>
null

> <PUBCHEM_COMPOUND_CID>
61561031

> <PUBCHEM_COMPOUND_CANONICALIZED>
1

> <PUBCHEM_CACTVS_COMPLEXITY>
346

> <PUBCHEM_CACTVS_HBOND_ACCEPTOR>
3

> <PUBCHEM_CACTVS_HBOND_DONOR>
2

> <PUBCHEM_CACTVS_ROTATABLE_BOND>
3

> <PUBCHEM_CACTVS_SUBSKEYS>
AAADceBzIAAAAAAAAAAAAAAAAAAAAeIAAAA8QAAAAAAAAAABAAAAHgAQAAAADSjBmAQywIPAAACIAiVSUACCAAAhAgAIiACIZIgIYCLA0fGUIAhglADIyAcQgAAOCAAAAAQCAAAQAAAACAQAACAAAAAAAA==

> <PUBCHEM_IUPAC_OPENEYE_NAME>
N-(5-amino-2-methyl-phenyl)-2-(3-azabicyclo[2.2.1]heptan-3-yl)acetamide

> <PUBCHEM_IUPAC_CAS_NAME>
N-(5-amino-2-methylphenyl)-2-(3-azabicyclo[2.2.1]heptan-3-yl)acetamide

> <PUBCHEM_IUPAC_NAME>
N-(5-amino-2-methylphenyl)-2-(3-azabicyclo[2.2.1]heptan-3-yl)acetamide

> <PUBCHEM_IUPAC_SYSTEMATIC_NAME>
2-(3-azabicyclo[2.2.1]heptan-3-yl)-N-(5-azanyl-2-methyl-phenyl)ethanamide

> <PUBCHEM_IUPAC_TRADITIONAL_NAME>
N-(5-amino-2-methyl-phenyl)-2-(3-azabicyclo[2.2.1]heptan-3-yl)acetamide

> <PUBCHEM_IUPAC_INCHI>
InChI=1S/C15H21N3O/c1-10-2-4-12(16)7-14(10)17-15(19)9-18-8-11-3-5-13(18)6-11/h2,4,7,11,13H,3,5-6,8-9,16H2,1H3,(H,17,19)

> <PUBCHEM_IUPAC_INCHIKEY>
LAEHCCFGMPDEEI-UHFFFAOYSA-N

> <PUBCHEM_XLOGP3_AA>
1.8

> <PUBCHEM_EXACT_MASS>
259.168462

> <PUBCHEM_MOLECULAR_FORMULA>
C15H21N3O

> <PUBCHEM_MOLECULAR_WEIGHT>
259.34674

> <PUBCHEM_OPENEYE_CAN_SMILES>
CC1=C(C=C(C=C1)N)NC(=O)CN2CC3CCC2C3

> <PUBCHEM_OPENEYE_ISO_SMILES>
CC1=C(C=C(C=C1)N)NC(=O)CN2CC3CCC2C3

> <PUBCHEM_CACTVS_TPSA>
58.4

> <PUBCHEM_MONOISOTOPIC_WEIGHT>
259.168462

> <PUBCHEM_TOTAL_CHARGE>
0

> <PUBCHEM_HEAVY_ATOM_COUNT>
19

> <PUBCHEM_ATOM_DEF_STEREO_COUNT>
0

> <PUBCHEM_ATOM_UDEF_STEREO_COUNT>
2

> <PUBCHEM_BOND_DEF_STEREO_COUNT>
0

> <PUBCHEM_BOND_UDEF_STEREO_COUNT>
0

> <PUBCHEM_ISOTOPIC_ATOM_COUNT>
0

> <PUBCHEM_COMPONENT_COUNT>
1

> <PUBCHEM_CACTVS_TAUTO_COUNT>
3

> <PUBCHEM_COORDINATE_TYPE>
1

> <PUBCHEM_BONDANNOTATIONS>
13  14  8

$$$$
