65295144
  CDK     1110140953

 45 47  0  0  0  0  0  0  0  0999 V2000
    8.9142   -1.1044    0.0000 O   0  0  0  0  0  0  0  0  0  0  0  0
    4.0000    3.2257    0.0000 O   0  0  0  0  0  0  0  0  0  0  0  0
    5.5000   -1.1044    0.0000 N   0  0  0  0  0  0  0  0  0  0  0  0
    2.5000    2.3597    0.0000 N   0  0  0  0  0  0  0  0  0  0  0  0
    7.2071   -1.8115    0.0000 C   0  0  0  0  0  0  0  0  0  0  0  0
    6.5000   -1.1044    0.0000 C   0  0  3  0  0  0  0  0  0  0  0  0
    7.9142   -1.1044    0.0000 C   0  0  3  0  0  0  0  0  0  0  0  0
    7.9142   -2.5186    0.0000 C   0  0  0  0  0  0  0  0  0  0  0  0
    6.5000   -2.5186    0.0000 C   0  0  0  0  0  0  0  0  0  0  0  0
    7.2071   -0.3973    0.0000 C   0  0  0  0  0  0  0  0  0  0  0  0
    7.2071   -3.2257    0.0000 C   0  0  0  0  0  0  0  0  0  0  0  0
    5.0000   -0.2384    0.0000 C   0  0  0  0  0  0  0  0  0  0  0  0
    9.4142   -0.2384    0.0000 C   0  0  0  0  0  0  0  0  0  0  0  0
   10.4142   -0.2384    0.0000 C   0  0  0  0  0  0  0  0  0  0  0  0
    5.5000    0.6276    0.0000 C   0  0  0  0  0  0  0  0  0  0  0  0
    4.0000   -0.2384    0.0000 C   0  0  0  0  0  0  0  0  0  0  0  0
    5.0000    1.4937    0.0000 C   0  0  0  0  0  0  0  0  0  0  0  0
    3.5000    0.6276    0.0000 C   0  0  0  0  0  0  0  0  0  0  0  0
    4.0000    1.4937    0.0000 C   0  0  0  0  0  0  0  0  0  0  0  0
    3.5000    2.3597    0.0000 C   0  0  0  0  0  0  0  0  0  0  0  0
    2.0000    3.2257    0.0000 C   0  0  0  0  0  0  0  0  0  0  0  0
    6.2627   -1.6772    0.0000 H   0  0  0  0  0  0  0  0  0  0  0  0
    8.1515   -1.6772    0.0000 H   0  0  0  0  0  0  0  0  0  0  0  0
    8.3526   -2.9570    0.0000 H   0  0  0  0  0  0  0  0  0  0  0  0
    8.3526   -2.0802    0.0000 H   0  0  0  0  0  0  0  0  0  0  0  0
    6.0616   -2.0802    0.0000 H   0  0  0  0  0  0  0  0  0  0  0  0
    6.0616   -2.9570    0.0000 H   0  0  0  0  0  0  0  0  0  0  0  0
    7.6455    0.0411    0.0000 H   0  0  0  0  0  0  0  0  0  0  0  0
    6.7687    0.0411    0.0000 H   0  0  0  0  0  0  0  0  0  0  0  0
    6.7687   -3.6641    0.0000 H   0  0  0  0  0  0  0  0  0  0  0  0
    7.6455   -3.6641    0.0000 H   0  0  0  0  0  0  0  0  0  0  0  0
    5.1900   -1.6413    0.0000 H   0  0  0  0  0  0  0  0  0  0  0  0
    9.5219    0.3722    0.0000 H   0  0  0  0  0  0  0  0  0  0  0  0
    8.8316   -0.0263    0.0000 H   0  0  0  0  0  0  0  0  0  0  0  0
   10.4142   -0.8584    0.0000 H   0  0  0  0  0  0  0  0  0  0  0  0
   11.0342   -0.2384    0.0000 H   0  0  0  0  0  0  0  0  0  0  0  0
   10.4142    0.3816    0.0000 H   0  0  0  0  0  0  0  0  0  0  0  0
    6.1200    0.6276    0.0000 H   0  0  0  0  0  0  0  0  0  0  0  0
    3.6900   -0.7753    0.0000 H   0  0  0  0  0  0  0  0  0  0  0  0
    5.3100    2.0306    0.0000 H   0  0  0  0  0  0  0  0  0  0  0  0
    2.8800    0.6276    0.0000 H   0  0  0  0  0  0  0  0  0  0  0  0
    2.1900    1.8228    0.0000 H   0  0  0  0  0  0  0  0  0  0  0  0
    2.5369    3.5357    0.0000 H   0  0  0  0  0  0  0  0  0  0  0  0
    1.6900    3.7627    0.0000 H   0  0  0  0  0  0  0  0  0  0  0  0
    1.4631    2.9157    0.0000 H   0  0  0  0  0  0  0  0  0  0  0  0
  1  7  1  0  0  0  0 
  1 13  1  0  0  0  0 
  2 20  2  0  0  0  0 
  3  6  1  0  0  0  0 
  3 12  1  0  0  0  0 
  3 32  1  0  0  0  0 
  4 20  1  0  0  0  0 
  4 21  1  0  0  0  0 
  4 42  1  0  0  0  0 
  5  6  1  0  0  0  0 
  5  7  1  0  0  0  0 
  5  8  1  0  0  0  0 
  5  9  1  0  0  0  0 
  6 10  1  0  0  0  0 
  6 22  1  0  0  0  0 
  7 10  1  0  0  0  0 
  7 23  1  0  0  0  0 
  8 11  1  0  0  0  0 
  8 24  1  0  0  0  0 
  8 25  1  0  0  0  0 
  9 11  1  0  0  0  0 
  9 26  1  0  0  0  0 
  9 27  1  0  0  0  0 
 10 28  1  0  0  0  0 
 10 29  1  0  0  0  0 
 11 30  1  0  0  0  0 
 11 31  1  0  0  0  0 
 12 15  2  0  0  0  0 
 12 16  1  0  0  0  0 
 13 14  1  0  0  0  0 
 13 33  1  0  0  0  0 
 13 34  1  0  0  0  0 
 14 35  1  0  0  0  0 
 14 36  1  0  0  0  0 
 14 37  1  0  0  0  0 
 15 17  1  0  0  0  0 
 15 38  1  0  0  0  0 
 16 18  2  0  0  0  0 
 16 39  1  0  0  0  0 
 17 19  2  0  0  0  0 
 17 40  1  0  0  0  0 
 18 19  1  0  0  0  0 
 18 41  1  0  0  0  0 
 19 20  1  0  0  0  0 
 21 43  1  0  0  0  0 
 21 44  1  0  0  0  0 
 21 45  1  0  0  0  0 
M  END
> <cdk:Title>
65295144

> <cdk:Remark>
null

> <PUBCHEM_COMPOUND_CID>
65295144

> <PUBCHEM_COMPOUND_CANONICALIZED>
1

> <PUBCHEM_CACTVS_COMPLEXITY>
373

> <PUBCHEM_CACTVS_HBOND_ACCEPTOR>
3

> <PUBCHEM_CACTVS_HBOND_DONOR>
2

> <PUBCHEM_CACTVS_ROTATABLE_BOND>
5

> <PUBCHEM_CACTVS_SUBSKEYS>
AAADceB7MAAAAAAAAAAAAAAAAABgwAAAAAAwAAAAAAAAAAABAAAAHgAQAAAADjzhmAYywILABACIAiVSUACCAAAlAgAIiIEIZMgIIDLAlZGGIQhmkgDIyYeYySCfCAAAAAAAAAAQAAAAAAAAAAAAAAAAAA==

> <PUBCHEM_IUPAC_OPENEYE_NAME>
4-[(3-ethoxyspiro[3.3]heptan-1-yl)amino]-N-methyl-benzamide

> <PUBCHEM_IUPAC_CAS_NAME>
4-[(3-ethoxy-1-spiro[3.3]heptanyl)amino]-N-methylbenzamide

> <PUBCHEM_IUPAC_NAME>
4-[(3-ethoxyspiro[3.3]heptan-1-yl)amino]-N-methylbenzamide

> <PUBCHEM_IUPAC_SYSTEMATIC_NAME>
4-[(3-ethoxyspiro[3.3]heptan-1-yl)amino]-N-methyl-benzamide

> <PUBCHEM_IUPAC_TRADITIONAL_NAME>
4-[(3-ethoxyspiro[3.3]heptan-1-yl)amino]-N-methyl-benzamide

> <PUBCHEM_IUPAC_INCHI>
InChI=1S/C17H24N2O2/c1-3-21-15-11-14(17(15)9-4-10-17)19-13-7-5-12(6-8-13)16(20)18-2/h5-8,14-15,19H,3-4,9-11H2,1-2H3,(H,18,20)

> <PUBCHEM_IUPAC_INCHIKEY>
YOBAEMJKRSAQRB-UHFFFAOYSA-N

> <PUBCHEM_XLOGP3_AA>
2.8

> <PUBCHEM_EXACT_MASS>
288.183778

> <PUBCHEM_MOLECULAR_FORMULA>
C17H24N2O2

> <PUBCHEM_MOLECULAR_WEIGHT>
288.38466

> <PUBCHEM_OPENEYE_CAN_SMILES>
CCOC1CC(C12CCC2)NC3=CC=C(C=C3)C(=O)NC

> <PUBCHEM_OPENEYE_ISO_SMILES>
CCOC1CC(C12CCC2)NC3=CC=C(C=C3)C(=O)NC

> <PUBCHEM_CACTVS_TPSA>
50.4

> <PUBCHEM_MONOISOTOPIC_WEIGHT>
288.183778

> <PUBCHEM_TOTAL_CHARGE>
0

> <PUBCHEM_HEAVY_ATOM_COUNT>
21

> <PUBCHEM_ATOM_DEF_STEREO_COUNT>
0

> <PUBCHEM_ATOM_UDEF_STEREO_COUNT>
2

> <PUBCHEM_BOND_DEF_STEREO_COUNT>
0

> <PUBCHEM_BOND_UDEF_STEREO_COUNT>
0

> <PUBCHEM_ISOTOPIC_ATOM_COUNT>
0

> <PUBCHEM_COMPONENT_COUNT>
1

> <PUBCHEM_CACTVS_TAUTO_COUNT>
5

> <PUBCHEM_COORDINATE_TYPE>
1

> <PUBCHEM_BONDANNOTATIONS>
7  1  3

$$$$
65295144
  CDK     1110141344

 45 47  0  0  0  0  0  0  0  0999 V2000
    8.9142   -1.1044    0.0000 O   0  0  0  0  0  0  0  0  0  0  0  0
    4.0000    3.2257    0.0000 O   0  0  0  0  0  0  0  0  0  0  0  0
    5.5000   -1.1044    0.0000 N   0  0  0  0  0  0  0  0  0  0  0  0
    2.5000    2.3597    0.0000 N   0  0  0  0  0  0  0  0  0  0  0  0
    7.2071   -1.8115    0.0000 C   0  0  0  0  0  0  0  0  0  0  0  0
    6.5000   -1.1044    0.0000 C   0  0  3  0  0  0  0  0  0  0  0  0
    7.9142   -1.1044    0.0000 C   0  0  3  0  0  0  0  0  0  0  0  0
    7.9142   -2.5186    0.0000 C   0  0  0  0  0  0  0  0  0  0  0  0
    6.5000   -2.5186    0.0000 C   0  0  0  0  0  0  0  0  0  0  0  0
    7.2071   -0.3973    0.0000 C   0  0  0  0  0  0  0  0  0  0  0  0
    7.2071   -3.2257    0.0000 C   0  0  0  0  0  0  0  0  0  0  0  0
    5.0000   -0.2384    0.0000 C   0  0  0  0  0  0  0  0  0  0  0  0
    9.4142   -0.2384    0.0000 C   0  0  0  0  0  0  0  0  0  0  0  0
   10.4142   -0.2384    0.0000 C   0  0  0  0  0  0  0  0  0  0  0  0
    5.5000    0.6276    0.0000 C   0  0  0  0  0  0  0  0  0  0  0  0
    4.0000   -0.2384    0.0000 C   0  0  0  0  0  0  0  0  0  0  0  0
    5.0000    1.4937    0.0000 C   0  0  0  0  0  0  0  0  0  0  0  0
    3.5000    0.6276    0.0000 C   0  0  0  0  0  0  0  0  0  0  0  0
    4.0000    1.4937    0.0000 C   0  0  0  0  0  0  0  0  0  0  0  0
    3.5000    2.3597    0.0000 C   0  0  0  0  0  0  0  0  0  0  0  0
    2.0000    3.2257    0.0000 C   0  0  0  0  0  0  0  0  0  0  0  0
    6.2627   -1.6772    0.0000 H   0  0  0  0  0  0  0  0  0  0  0  0
    8.1515   -1.6772    0.0000 H   0  0  0  0  0  0  0  0  0  0  0  0
    8.3526   -2.9570    0.0000 H   0  0  0  0  0  0  0  0  0  0  0  0
    8.3526   -2.0802    0.0000 H   0  0  0  0  0  0  0  0  0  0  0  0
    6.0616   -2.0802    0.0000 H   0  0  0  0  0  0  0  0  0  0  0  0
    6.0616   -2.9570    0.0000 H   0  0  0  0  0  0  0  0  0  0  0  0
    7.6455    0.0411    0.0000 H   0  0  0  0  0  0  0  0  0  0  0  0
    6.7687    0.0411    0.0000 H   0  0  0  0  0  0  0  0  0  0  0  0
    6.7687   -3.6641    0.0000 H   0  0  0  0  0  0  0  0  0  0  0  0
    7.6455   -3.6641    0.0000 H   0  0  0  0  0  0  0  0  0  0  0  0
    5.1900   -1.6413    0.0000 H   0  0  0  0  0  0  0  0  0  0  0  0
    9.5219    0.3722    0.0000 H   0  0  0  0  0  0  0  0  0  0  0  0
    8.8316   -0.0263    0.0000 H   0  0  0  0  0  0  0  0  0  0  0  0
   10.4142   -0.8584    0.0000 H   0  0  0  0  0  0  0  0  0  0  0  0
   11.0342   -0.2384    0.0000 H   0  0  0  0  0  0  0  0  0  0  0  0
   10.4142    0.3816    0.0000 H   0  0  0  0  0  0  0  0  0  0  0  0
    6.1200    0.6276    0.0000 H   0  0  0  0  0  0  0  0  0  0  0  0
    3.6900   -0.7753    0.0000 H   0  0  0  0  0  0  0  0  0  0  0  0
    5.3100    2.0306    0.0000 H   0  0  0  0  0  0  0  0  0  0  0  0
    2.8800    0.6276    0.0000 H   0  0  0  0  0  0  0  0  0  0  0  0
    2.1900    1.8228    0.0000 H   0  0  0  0  0  0  0  0  0  0  0  0
    2.5369    3.5357    0.0000 H   0  0  0  0  0  0  0  0  0  0  0  0
    1.6900    3.7627    0.0000 H   0  0  0  0  0  0  0  0  0  0  0  0
    1.4631    2.9157    0.0000 H   0  0  0  0  0  0  0  0  0  0  0  0
  1  7  1  0  0  0  0 
  1 13  1  0  0  0  0 
  2 20  2  0  0  0  0 
  3  6  1  0  0  0  0 
  3 12  1  0  0  0  0 
  3 32  1  0  0  0  0 
  4 20  1  0  0  0  0 
  4 21  1  0  0  0  0 
  4 42  1  0  0  0  0 
  5  6  1  0  0  0  0 
  5  7  1  0  0  0  0 
  5  8  1  0  0  0  0 
  5  9  1  0  0  0  0 
  6 10  1  0  0  0  0 
  6 22  1  0  0  0  0 
  7 10  1  0  0  0  0 
  7 23  1  0  0  0  0 
  8 11  1  0  0  0  0 
  8 24  1  0  0  0  0 
  8 25  1  0  0  0  0 
  9 11  1  0  0  0  0 
  9 26  1  0  0  0  0 
  9 27  1  0  0  0  0 
 10 28  1  0  0  0  0 
 10 29  1  0  0  0  0 
 11 30  1  0  0  0  0 
 11 31  1  0  0  0  0 
 12 15  2  0  0  0  0 
 12 16  1  0  0  0  0 
 13 14  1  0  0  0  0 
 13 33  1  0  0  0  0 
 13 34  1  0  0  0  0 
 14 35  1  0  0  0  0 
 14 36  1  0  0  0  0 
 14 37  1  0  0  0  0 
 15 17  1  0  0  0  0 
 15 38  1  0  0  0  0 
 16 18  2  0  0  0  0 
 16 39  1  0  0  0  0 
 17 19  2  0  0  0  0 
 17 40  1  0  0  0  0 
 18 19  1  0  0  0  0 
 18 41  1  0  0  0  0 
 19 20  1  0  0  0  0 
 21 43  1  0  0  0  0 
 21 44  1  0  0  0  0 
 21 45  1  0  0  0  0 
M  END
> <cdk:Title>
65295144

> <cdk:Remark>
null

> <PUBCHEM_COMPOUND_CID>
65295144

> <PUBCHEM_COMPOUND_CANONICALIZED>
1

> <PUBCHEM_CACTVS_COMPLEXITY>
373

> <PUBCHEM_CACTVS_HBOND_ACCEPTOR>
3

> <PUBCHEM_CACTVS_HBOND_DONOR>
2

> <PUBCHEM_CACTVS_ROTATABLE_BOND>
5

> <PUBCHEM_CACTVS_SUBSKEYS>
AAADceB7MAAAAAAAAAAAAAAAAABgwAAAAAAwAAAAAAAAAAABAAAAHgAQAAAADjzhmAYywILABACIAiVSUACCAAAlAgAIiIEIZMgIIDLAlZGGIQhmkgDIyYeYySCfCAAAAAAAAAAQAAAAAAAAAAAAAAAAAA==

> <PUBCHEM_IUPAC_OPENEYE_NAME>
4-[(3-ethoxyspiro[3.3]heptan-1-yl)amino]-N-methyl-benzamide

> <PUBCHEM_IUPAC_CAS_NAME>
4-[(3-ethoxy-1-spiro[3.3]heptanyl)amino]-N-methylbenzamide

> <PUBCHEM_IUPAC_NAME>
4-[(3-ethoxyspiro[3.3]heptan-1-yl)amino]-N-methylbenzamide

> <PUBCHEM_IUPAC_SYSTEMATIC_NAME>
4-[(3-ethoxyspiro[3.3]heptan-1-yl)amino]-N-methyl-benzamide

> <PUBCHEM_IUPAC_TRADITIONAL_NAME>
4-[(3-ethoxyspiro[3.3]heptan-1-yl)amino]-N-methyl-benzamide

> <PUBCHEM_IUPAC_INCHI>
InChI=1S/C17H24N2O2/c1-3-21-15-11-14(17(15)9-4-10-17)19-13-7-5-12(6-8-13)16(20)18-2/h5-8,14-15,19H,3-4,9-11H2,1-2H3,(H,18,20)

> <PUBCHEM_IUPAC_INCHIKEY>
YOBAEMJKRSAQRB-UHFFFAOYSA-N

> <PUBCHEM_XLOGP3_AA>
2.8

> <PUBCHEM_EXACT_MASS>
288.183778

> <PUBCHEM_MOLECULAR_FORMULA>
C17H24N2O2

> <PUBCHEM_MOLECULAR_WEIGHT>
288.38466

> <PUBCHEM_OPENEYE_CAN_SMILES>
CCOC1CC(C12CCC2)NC3=CC=C(C=C3)C(=O)NC

> <PUBCHEM_OPENEYE_ISO_SMILES>
CCOC1CC(C12CCC2)NC3=CC=C(C=C3)C(=O)NC

> <PUBCHEM_CACTVS_TPSA>
50.4

> <PUBCHEM_MONOISOTOPIC_WEIGHT>
288.183778

> <PUBCHEM_TOTAL_CHARGE>
0

> <PUBCHEM_HEAVY_ATOM_COUNT>
21

> <PUBCHEM_ATOM_DEF_STEREO_COUNT>
0

> <PUBCHEM_ATOM_UDEF_STEREO_COUNT>
2

> <PUBCHEM_BOND_DEF_STEREO_COUNT>
0

> <PUBCHEM_BOND_UDEF_STEREO_COUNT>
0

> <PUBCHEM_ISOTOPIC_ATOM_COUNT>
0

> <PUBCHEM_COMPONENT_COUNT>
1

> <PUBCHEM_CACTVS_TAUTO_COUNT>
5

> <PUBCHEM_COORDINATE_TYPE>
1

> <PUBCHEM_BONDANNOTATIONS>
7  1  3

$$$$
65295144
  CDK     1110141346

 45 47  0  0  0  0  0  0  0  0999 V2000
    8.9142   -1.1044    0.0000 O   0  0  0  0  0  0  0  0  0  0  0  0
    4.0000    3.2257    0.0000 O   0  0  0  0  0  0  0  0  0  0  0  0
    5.5000   -1.1044    0.0000 N   0  0  0  0  0  0  0  0  0  0  0  0
    2.5000    2.3597    0.0000 N   0  0  0  0  0  0  0  0  0  0  0  0
    7.2071   -1.8115    0.0000 C   0  0  0  0  0  0  0  0  0  0  0  0
    6.5000   -1.1044    0.0000 C   0  0  3  0  0  0  0  0  0  0  0  0
    7.9142   -1.1044    0.0000 C   0  0  3  0  0  0  0  0  0  0  0  0
    7.9142   -2.5186    0.0000 C   0  0  0  0  0  0  0  0  0  0  0  0
    6.5000   -2.5186    0.0000 C   0  0  0  0  0  0  0  0  0  0  0  0
    7.2071   -0.3973    0.0000 C   0  0  0  0  0  0  0  0  0  0  0  0
    7.2071   -3.2257    0.0000 C   0  0  0  0  0  0  0  0  0  0  0  0
    5.0000   -0.2384    0.0000 C   0  0  0  0  0  0  0  0  0  0  0  0
    9.4142   -0.2384    0.0000 C   0  0  0  0  0  0  0  0  0  0  0  0
   10.4142   -0.2384    0.0000 C   0  0  0  0  0  0  0  0  0  0  0  0
    5.5000    0.6276    0.0000 C   0  0  0  0  0  0  0  0  0  0  0  0
    4.0000   -0.2384    0.0000 C   0  0  0  0  0  0  0  0  0  0  0  0
    5.0000    1.4937    0.0000 C   0  0  0  0  0  0  0  0  0  0  0  0
    3.5000    0.6276    0.0000 C   0  0  0  0  0  0  0  0  0  0  0  0
    4.0000    1.4937    0.0000 C   0  0  0  0  0  0  0  0  0  0  0  0
    3.5000    2.3597    0.0000 C   0  0  0  0  0  0  0  0  0  0  0  0
    2.0000    3.2257    0.0000 C   0  0  0  0  0  0  0  0  0  0  0  0
    6.2627   -1.6772    0.0000 H   0  0  0  0  0  0  0  0  0  0  0  0
    8.1515   -1.6772    0.0000 H   0  0  0  0  0  0  0  0  0  0  0  0
    8.3526   -2.9570    0.0000 H   0  0  0  0  0  0  0  0  0  0  0  0
    8.3526   -2.0802    0.0000 H   0  0  0  0  0  0  0  0  0  0  0  0
    6.0616   -2.0802    0.0000 H   0  0  0  0  0  0  0  0  0  0  0  0
    6.0616   -2.9570    0.0000 H   0  0  0  0  0  0  0  0  0  0  0  0
    7.6455    0.0411    0.0000 H   0  0  0  0  0  0  0  0  0  0  0  0
    6.7687    0.0411    0.0000 H   0  0  0  0  0  0  0  0  0  0  0  0
    6.7687   -3.6641    0.0000 H   0  0  0  0  0  0  0  0  0  0  0  0
    7.6455   -3.6641    0.0000 H   0  0  0  0  0  0  0  0  0  0  0  0
    5.1900   -1.6413    0.0000 H   0  0  0  0  0  0  0  0  0  0  0  0
    9.5219    0.3722    0.0000 H   0  0  0  0  0  0  0  0  0  0  0  0
    8.8316   -0.0263    0.0000 H   0  0  0  0  0  0  0  0  0  0  0  0
   10.4142   -0.8584    0.0000 H   0  0  0  0  0  0  0  0  0  0  0  0
   11.0342   -0.2384    0.0000 H   0  0  0  0  0  0  0  0  0  0  0  0
   10.4142    0.3816    0.0000 H   0  0  0  0  0  0  0  0  0  0  0  0
    6.1200    0.6276    0.0000 H   0  0  0  0  0  0  0  0  0  0  0  0
    3.6900   -0.7753    0.0000 H   0  0  0  0  0  0  0  0  0  0  0  0
    5.3100    2.0306    0.0000 H   0  0  0  0  0  0  0  0  0  0  0  0
    2.8800    0.6276    0.0000 H   0  0  0  0  0  0  0  0  0  0  0  0
    2.1900    1.8228    0.0000 H   0  0  0  0  0  0  0  0  0  0  0  0
    2.5369    3.5357    0.0000 H   0  0  0  0  0  0  0  0  0  0  0  0
    1.6900    3.7627    0.0000 H   0  0  0  0  0  0  0  0  0  0  0  0
    1.4631    2.9157    0.0000 H   0  0  0  0  0  0  0  0  0  0  0  0
  1  7  1  0  0  0  0 
  1 13  1  0  0  0  0 
  2 20  2  0  0  0  0 
  3  6  1  0  0  0  0 
  3 12  1  0  0  0  0 
  3 32  1  0  0  0  0 
  4 20  1  0  0  0  0 
  4 21  1  0  0  0  0 
  4 42  1  0  0  0  0 
  5  6  1  0  0  0  0 
  5  7  1  0  0  0  0 
  5  8  1  0  0  0  0 
  5  9  1  0  0  0  0 
  6 10  1  0  0  0  0 
  6 22  1  0  0  0  0 
  7 10  1  0  0  0  0 
  7 23  1  0  0  0  0 
  8 11  1  0  0  0  0 
  8 24  1  0  0  0  0 
  8 25  1  0  0  0  0 
  9 11  1  0  0  0  0 
  9 26  1  0  0  0  0 
  9 27  1  0  0  0  0 
 10 28  1  0  0  0  0 
 10 29  1  0  0  0  0 
 11 30  1  0  0  0  0 
 11 31  1  0  0  0  0 
 12 15  2  0  0  0  0 
 12 16  1  0  0  0  0 
 13 14  1  0  0  0  0 
 13 33  1  0  0  0  0 
 13 34  1  0  0  0  0 
 14 35  1  0  0  0  0 
 14 36  1  0  0  0  0 
 14 37  1  0  0  0  0 
 15 17  1  0  0  0  0 
 15 38  1  0  0  0  0 
 16 18  2  0  0  0  0 
 16 39  1  0  0  0  0 
 17 19  2  0  0  0  0 
 17 40  1  0  0  0  0 
 18 19  1  0  0  0  0 
 18 41  1  0  0  0  0 
 19 20  1  0  0  0  0 
 21 43  1  0  0  0  0 
 21 44  1  0  0  0  0 
 21 45  1  0  0  0  0 
M  END
> <cdk:Title>
65295144

> <cdk:Remark>
null

> <PUBCHEM_COMPOUND_CID>
65295144

> <PUBCHEM_COMPOUND_CANONICALIZED>
1

> <PUBCHEM_CACTVS_COMPLEXITY>
373

> <PUBCHEM_CACTVS_HBOND_ACCEPTOR>
3

> <PUBCHEM_CACTVS_HBOND_DONOR>
2

> <PUBCHEM_CACTVS_ROTATABLE_BOND>
5

> <PUBCHEM_CACTVS_SUBSKEYS>
AAADceB7MAAAAAAAAAAAAAAAAABgwAAAAAAwAAAAAAAAAAABAAAAHgAQAAAADjzhmAYywILABACIAiVSUACCAAAlAgAIiIEIZMgIIDLAlZGGIQhmkgDIyYeYySCfCAAAAAAAAAAQAAAAAAAAAAAAAAAAAA==

> <PUBCHEM_IUPAC_OPENEYE_NAME>
4-[(3-ethoxyspiro[3.3]heptan-1-yl)amino]-N-methyl-benzamide

> <PUBCHEM_IUPAC_CAS_NAME>
4-[(3-ethoxy-1-spiro[3.3]heptanyl)amino]-N-methylbenzamide

> <PUBCHEM_IUPAC_NAME>
4-[(3-ethoxyspiro[3.3]heptan-1-yl)amino]-N-methylbenzamide

> <PUBCHEM_IUPAC_SYSTEMATIC_NAME>
4-[(3-ethoxyspiro[3.3]heptan-1-yl)amino]-N-methyl-benzamide

> <PUBCHEM_IUPAC_TRADITIONAL_NAME>
4-[(3-ethoxyspiro[3.3]heptan-1-yl)amino]-N-methyl-benzamide

> <PUBCHEM_IUPAC_INCHI>
InChI=1S/C17H24N2O2/c1-3-21-15-11-14(17(15)9-4-10-17)19-13-7-5-12(6-8-13)16(20)18-2/h5-8,14-15,19H,3-4,9-11H2,1-2H3,(H,18,20)

> <PUBCHEM_IUPAC_INCHIKEY>
YOBAEMJKRSAQRB-UHFFFAOYSA-N

> <PUBCHEM_XLOGP3_AA>
2.8

> <PUBCHEM_EXACT_MASS>
288.183778

> <PUBCHEM_MOLECULAR_FORMULA>
C17H24N2O2

> <PUBCHEM_MOLECULAR_WEIGHT>
288.38466

> <PUBCHEM_OPENEYE_CAN_SMILES>
CCOC1CC(C12CCC2)NC3=CC=C(C=C3)C(=O)NC

> <PUBCHEM_OPENEYE_ISO_SMILES>
CCOC1CC(C12CCC2)NC3=CC=C(C=C3)C(=O)NC

> <PUBCHEM_CACTVS_TPSA>
50.4

> <PUBCHEM_MONOISOTOPIC_WEIGHT>
288.183778

> <PUBCHEM_TOTAL_CHARGE>
0

> <PUBCHEM_HEAVY_ATOM_COUNT>
21

> <PUBCHEM_ATOM_DEF_STEREO_COUNT>
0

> <PUBCHEM_ATOM_UDEF_STEREO_COUNT>
2

> <PUBCHEM_BOND_DEF_STEREO_COUNT>
0

> <PUBCHEM_BOND_UDEF_STEREO_COUNT>
0

> <PUBCHEM_ISOTOPIC_ATOM_COUNT>
0

> <PUBCHEM_COMPONENT_COUNT>
1

> <PUBCHEM_CACTVS_TAUTO_COUNT>
5

> <PUBCHEM_COORDINATE_TYPE>
1

> <PUBCHEM_BONDANNOTATIONS>
7  1  3

$$$$
65295144
  CDK     1110141352

 45 47  0  0  0  0  0  0  0  0999 V2000
    8.9142   -1.1044    0.0000 O   0  0  0  0  0  0  0  0  0  0  0  0
    4.0000    3.2257    0.0000 O   0  0  0  0  0  0  0  0  0  0  0  0
    5.5000   -1.1044    0.0000 N   0  0  0  0  0  0  0  0  0  0  0  0
    2.5000    2.3597    0.0000 N   0  0  0  0  0  0  0  0  0  0  0  0
    7.2071   -1.8115    0.0000 C   0  0  0  0  0  0  0  0  0  0  0  0
    6.5000   -1.1044    0.0000 C   0  0  3  0  0  0  0  0  0  0  0  0
    7.9142   -1.1044    0.0000 C   0  0  3  0  0  0  0  0  0  0  0  0
    7.9142   -2.5186    0.0000 C   0  0  0  0  0  0  0  0  0  0  0  0
    6.5000   -2.5186    0.0000 C   0  0  0  0  0  0  0  0  0  0  0  0
    7.2071   -0.3973    0.0000 C   0  0  0  0  0  0  0  0  0  0  0  0
    7.2071   -3.2257    0.0000 C   0  0  0  0  0  0  0  0  0  0  0  0
    5.0000   -0.2384    0.0000 C   0  0  0  0  0  0  0  0  0  0  0  0
    9.4142   -0.2384    0.0000 C   0  0  0  0  0  0  0  0  0  0  0  0
   10.4142   -0.2384    0.0000 C   0  0  0  0  0  0  0  0  0  0  0  0
    5.5000    0.6276    0.0000 C   0  0  0  0  0  0  0  0  0  0  0  0
    4.0000   -0.2384    0.0000 C   0  0  0  0  0  0  0  0  0  0  0  0
    5.0000    1.4937    0.0000 C   0  0  0  0  0  0  0  0  0  0  0  0
    3.5000    0.6276    0.0000 C   0  0  0  0  0  0  0  0  0  0  0  0
    4.0000    1.4937    0.0000 C   0  0  0  0  0  0  0  0  0  0  0  0
    3.5000    2.3597    0.0000 C   0  0  0  0  0  0  0  0  0  0  0  0
    2.0000    3.2257    0.0000 C   0  0  0  0  0  0  0  0  0  0  0  0
    6.2627   -1.6772    0.0000 H   0  0  0  0  0  0  0  0  0  0  0  0
    8.1515   -1.6772    0.0000 H   0  0  0  0  0  0  0  0  0  0  0  0
    8.3526   -2.9570    0.0000 H   0  0  0  0  0  0  0  0  0  0  0  0
    8.3526   -2.0802    0.0000 H   0  0  0  0  0  0  0  0  0  0  0  0
    6.0616   -2.0802    0.0000 H   0  0  0  0  0  0  0  0  0  0  0  0
    6.0616   -2.9570    0.0000 H   0  0  0  0  0  0  0  0  0  0  0  0
    7.6455    0.0411    0.0000 H   0  0  0  0  0  0  0  0  0  0  0  0
    6.7687    0.0411    0.0000 H   0  0  0  0  0  0  0  0  0  0  0  0
    6.7687   -3.6641    0.0000 H   0  0  0  0  0  0  0  0  0  0  0  0
    7.6455   -3.6641    0.0000 H   0  0  0  0  0  0  0  0  0  0  0  0
    5.1900   -1.6413    0.0000 H   0  0  0  0  0  0  0  0  0  0  0  0
    9.5219    0.3722    0.0000 H   0  0  0  0  0  0  0  0  0  0  0  0
    8.8316   -0.0263    0.0000 H   0  0  0  0  0  0  0  0  0  0  0  0
   10.4142   -0.8584    0.0000 H   0  0  0  0  0  0  0  0  0  0  0  0
   11.0342   -0.2384    0.0000 H   0  0  0  0  0  0  0  0  0  0  0  0
   10.4142    0.3816    0.0000 H   0  0  0  0  0  0  0  0  0  0  0  0
    6.1200    0.6276    0.0000 H   0  0  0  0  0  0  0  0  0  0  0  0
    3.6900   -0.7753    0.0000 H   0  0  0  0  0  0  0  0  0  0  0  0
    5.3100    2.0306    0.0000 H   0  0  0  0  0  0  0  0  0  0  0  0
    2.8800    0.6276    0.0000 H   0  0  0  0  0  0  0  0  0  0  0  0
    2.1900    1.8228    0.0000 H   0  0  0  0  0  0  0  0  0  0  0  0
    2.5369    3.5357    0.0000 H   0  0  0  0  0  0  0  0  0  0  0  0
    1.6900    3.7627    0.0000 H   0  0  0  0  0  0  0  0  0  0  0  0
    1.4631    2.9157    0.0000 H   0  0  0  0  0  0  0  0  0  0  0  0
  1  7  1  0  0  0  0 
  1 13  1  0  0  0  0 
  2 20  2  0  0  0  0 
  3  6  1  0  0  0  0 
  3 12  1  0  0  0  0 
  3 32  1  0  0  0  0 
  4 20  1  0  0  0  0 
  4 21  1  0  0  0  0 
  4 42  1  0  0  0  0 
  5  6  1  0  0  0  0 
  5  7  1  0  0  0  0 
  5  8  1  0  0  0  0 
  5  9  1  0  0  0  0 
  6 10  1  0  0  0  0 
  6 22  1  0  0  0  0 
  7 10  1  0  0  0  0 
  7 23  1  0  0  0  0 
  8 11  1  0  0  0  0 
  8 24  1  0  0  0  0 
  8 25  1  0  0  0  0 
  9 11  1  0  0  0  0 
  9 26  1  0  0  0  0 
  9 27  1  0  0  0  0 
 10 28  1  0  0  0  0 
 10 29  1  0  0  0  0 
 11 30  1  0  0  0  0 
 11 31  1  0  0  0  0 
 12 15  2  0  0  0  0 
 12 16  1  0  0  0  0 
 13 14  1  0  0  0  0 
 13 33  1  0  0  0  0 
 13 34  1  0  0  0  0 
 14 35  1  0  0  0  0 
 14 36  1  0  0  0  0 
 14 37  1  0  0  0  0 
 15 17  1  0  0  0  0 
 15 38  1  0  0  0  0 
 16 18  2  0  0  0  0 
 16 39  1  0  0  0  0 
 17 19  2  0  0  0  0 
 17 40  1  0  0  0  0 
 18 19  1  0  0  0  0 
 18 41  1  0  0  0  0 
 19 20  1  0  0  0  0 
 21 43  1  0  0  0  0 
 21 44  1  0  0  0  0 
 21 45  1  0  0  0  0 
M  END
> <cdk:Title>
65295144

> <cdk:Remark>
null

> <PUBCHEM_COMPOUND_CID>
65295144

> <PUBCHEM_COMPOUND_CANONICALIZED>
1

> <PUBCHEM_CACTVS_COMPLEXITY>
373

> <PUBCHEM_CACTVS_HBOND_ACCEPTOR>
3

> <PUBCHEM_CACTVS_HBOND_DONOR>
2

> <PUBCHEM_CACTVS_ROTATABLE_BOND>
5

> <PUBCHEM_CACTVS_SUBSKEYS>
AAADceB7MAAAAAAAAAAAAAAAAABgwAAAAAAwAAAAAAAAAAABAAAAHgAQAAAADjzhmAYywILABACIAiVSUACCAAAlAgAIiIEIZMgIIDLAlZGGIQhmkgDIyYeYySCfCAAAAAAAAAAQAAAAAAAAAAAAAAAAAA==

> <PUBCHEM_IUPAC_OPENEYE_NAME>
4-[(3-ethoxyspiro[3.3]heptan-1-yl)amino]-N-methyl-benzamide

> <PUBCHEM_IUPAC_CAS_NAME>
4-[(3-ethoxy-1-spiro[3.3]heptanyl)amino]-N-methylbenzamide

> <PUBCHEM_IUPAC_NAME>
4-[(3-ethoxyspiro[3.3]heptan-1-yl)amino]-N-methylbenzamide

> <PUBCHEM_IUPAC_SYSTEMATIC_NAME>
4-[(3-ethoxyspiro[3.3]heptan-1-yl)amino]-N-methyl-benzamide

> <PUBCHEM_IUPAC_TRADITIONAL_NAME>
4-[(3-ethoxyspiro[3.3]heptan-1-yl)amino]-N-methyl-benzamide

> <PUBCHEM_IUPAC_INCHI>
InChI=1S/C17H24N2O2/c1-3-21-15-11-14(17(15)9-4-10-17)19-13-7-5-12(6-8-13)16(20)18-2/h5-8,14-15,19H,3-4,9-11H2,1-2H3,(H,18,20)

> <PUBCHEM_IUPAC_INCHIKEY>
YOBAEMJKRSAQRB-UHFFFAOYSA-N

> <PUBCHEM_XLOGP3_AA>
2.8

> <PUBCHEM_EXACT_MASS>
288.183778

> <PUBCHEM_MOLECULAR_FORMULA>
C17H24N2O2

> <PUBCHEM_MOLECULAR_WEIGHT>
288.38466

> <PUBCHEM_OPENEYE_CAN_SMILES>
CCOC1CC(C12CCC2)NC3=CC=C(C=C3)C(=O)NC

> <PUBCHEM_OPENEYE_ISO_SMILES>
CCOC1CC(C12CCC2)NC3=CC=C(C=C3)C(=O)NC

> <PUBCHEM_CACTVS_TPSA>
50.4

> <PUBCHEM_MONOISOTOPIC_WEIGHT>
288.183778

> <PUBCHEM_TOTAL_CHARGE>
0

> <PUBCHEM_HEAVY_ATOM_COUNT>
21

> <PUBCHEM_ATOM_DEF_STEREO_COUNT>
0

> <PUBCHEM_ATOM_UDEF_STEREO_COUNT>
2

> <PUBCHEM_BOND_DEF_STEREO_COUNT>
0

> <PUBCHEM_BOND_UDEF_STEREO_COUNT>
0

> <PUBCHEM_ISOTOPIC_ATOM_COUNT>
0

> <PUBCHEM_COMPONENT_COUNT>
1

> <PUBCHEM_CACTVS_TAUTO_COUNT>
5

> <PUBCHEM_COORDINATE_TYPE>
1

> <PUBCHEM_BONDANNOTATIONS>
7  1  3

$$$$
65295144
  CDK     1110141358

 45 47  0  0  0  0  0  0  0  0999 V2000
    8.9142   -1.1044    0.0000 O   0  0  0  0  0  0  0  0  0  0  0  0
    4.0000    3.2257    0.0000 O   0  0  0  0  0  0  0  0  0  0  0  0
    5.5000   -1.1044    0.0000 N   0  0  0  0  0  0  0  0  0  0  0  0
    2.5000    2.3597    0.0000 N   0  0  0  0  0  0  0  0  0  0  0  0
    7.2071   -1.8115    0.0000 C   0  0  0  0  0  0  0  0  0  0  0  0
    6.5000   -1.1044    0.0000 C   0  0  3  0  0  0  0  0  0  0  0  0
    7.9142   -1.1044    0.0000 C   0  0  3  0  0  0  0  0  0  0  0  0
    7.9142   -2.5186    0.0000 C   0  0  0  0  0  0  0  0  0  0  0  0
    6.5000   -2.5186    0.0000 C   0  0  0  0  0  0  0  0  0  0  0  0
    7.2071   -0.3973    0.0000 C   0  0  0  0  0  0  0  0  0  0  0  0
    7.2071   -3.2257    0.0000 C   0  0  0  0  0  0  0  0  0  0  0  0
    5.0000   -0.2384    0.0000 C   0  0  0  0  0  0  0  0  0  0  0  0
    9.4142   -0.2384    0.0000 C   0  0  0  0  0  0  0  0  0  0  0  0
   10.4142   -0.2384    0.0000 C   0  0  0  0  0  0  0  0  0  0  0  0
    5.5000    0.6276    0.0000 C   0  0  0  0  0  0  0  0  0  0  0  0
    4.0000   -0.2384    0.0000 C   0  0  0  0  0  0  0  0  0  0  0  0
    5.0000    1.4937    0.0000 C   0  0  0  0  0  0  0  0  0  0  0  0
    3.5000    0.6276    0.0000 C   0  0  0  0  0  0  0  0  0  0  0  0
    4.0000    1.4937    0.0000 C   0  0  0  0  0  0  0  0  0  0  0  0
    3.5000    2.3597    0.0000 C   0  0  0  0  0  0  0  0  0  0  0  0
    2.0000    3.2257    0.0000 C   0  0  0  0  0  0  0  0  0  0  0  0
    6.2627   -1.6772    0.0000 H   0  0  0  0  0  0  0  0  0  0  0  0
    8.1515   -1.6772    0.0000 H   0  0  0  0  0  0  0  0  0  0  0  0
    8.3526   -2.9570    0.0000 H   0  0  0  0  0  0  0  0  0  0  0  0
    8.3526   -2.0802    0.0000 H   0  0  0  0  0  0  0  0  0  0  0  0
    6.0616   -2.0802    0.0000 H   0  0  0  0  0  0  0  0  0  0  0  0
    6.0616   -2.9570    0.0000 H   0  0  0  0  0  0  0  0  0  0  0  0
    7.6455    0.0411    0.0000 H   0  0  0  0  0  0  0  0  0  0  0  0
    6.7687    0.0411    0.0000 H   0  0  0  0  0  0  0  0  0  0  0  0
    6.7687   -3.6641    0.0000 H   0  0  0  0  0  0  0  0  0  0  0  0
    7.6455   -3.6641    0.0000 H   0  0  0  0  0  0  0  0  0  0  0  0
    5.1900   -1.6413    0.0000 H   0  0  0  0  0  0  0  0  0  0  0  0
    9.5219    0.3722    0.0000 H   0  0  0  0  0  0  0  0  0  0  0  0
    8.8316   -0.0263    0.0000 H   0  0  0  0  0  0  0  0  0  0  0  0
   10.4142   -0.8584    0.0000 H   0  0  0  0  0  0  0  0  0  0  0  0
   11.0342   -0.2384    0.0000 H   0  0  0  0  0  0  0  0  0  0  0  0
   10.4142    0.3816    0.0000 H   0  0  0  0  0  0  0  0  0  0  0  0
    6.1200    0.6276    0.0000 H   0  0  0  0  0  0  0  0  0  0  0  0
    3.6900   -0.7753    0.0000 H   0  0  0  0  0  0  0  0  0  0  0  0
    5.3100    2.0306    0.0000 H   0  0  0  0  0  0  0  0  0  0  0  0
    2.8800    0.6276    0.0000 H   0  0  0  0  0  0  0  0  0  0  0  0
    2.1900    1.8228    0.0000 H   0  0  0  0  0  0  0  0  0  0  0  0
    2.5369    3.5357    0.0000 H   0  0  0  0  0  0  0  0  0  0  0  0
    1.6900    3.7627    0.0000 H   0  0  0  0  0  0  0  0  0  0  0  0
    1.4631    2.9157    0.0000 H   0  0  0  0  0  0  0  0  0  0  0  0
  1  7  1  0  0  0  0 
  1 13  1  0  0  0  0 
  2 20  2  0  0  0  0 
  3  6  1  0  0  0  0 
  3 12  1  0  0  0  0 
  3 32  1  0  0  0  0 
  4 20  1  0  0  0  0 
  4 21  1  0  0  0  0 
  4 42  1  0  0  0  0 
  5  6  1  0  0  0  0 
  5  7  1  0  0  0  0 
  5  8  1  0  0  0  0 
  5  9  1  0  0  0  0 
  6 10  1  0  0  0  0 
  6 22  1  0  0  0  0 
  7 10  1  0  0  0  0 
  7 23  1  0  0  0  0 
  8 11  1  0  0  0  0 
  8 24  1  0  0  0  0 
  8 25  1  0  0  0  0 
  9 11  1  0  0  0  0 
  9 26  1  0  0  0  0 
  9 27  1  0  0  0  0 
 10 28  1  0  0  0  0 
 10 29  1  0  0  0  0 
 11 30  1  0  0  0  0 
 11 31  1  0  0  0  0 
 12 15  2  0  0  0  0 
 12 16  1  0  0  0  0 
 13 14  1  0  0  0  0 
 13 33  1  0  0  0  0 
 13 34  1  0  0  0  0 
 14 35  1  0  0  0  0 
 14 36  1  0  0  0  0 
 14 37  1  0  0  0  0 
 15 17  1  0  0  0  0 
 15 38  1  0  0  0  0 
 16 18  2  0  0  0  0 
 16 39  1  0  0  0  0 
 17 19  2  0  0  0  0 
 17 40  1  0  0  0  0 
 18 19  1  0  0  0  0 
 18 41  1  0  0  0  0 
 19 20  1  0  0  0  0 
 21 43  1  0  0  0  0 
 21 44  1  0  0  0  0 
 21 45  1  0  0  0  0 
M  END
> <cdk:Title>
65295144

> <cdk:Remark>
null

> <PUBCHEM_COMPOUND_CID>
65295144

> <PUBCHEM_COMPOUND_CANONICALIZED>
1

> <PUBCHEM_CACTVS_COMPLEXITY>
373

> <PUBCHEM_CACTVS_HBOND_ACCEPTOR>
3

> <PUBCHEM_CACTVS_HBOND_DONOR>
2

> <PUBCHEM_CACTVS_ROTATABLE_BOND>
5

> <PUBCHEM_CACTVS_SUBSKEYS>
AAADceB7MAAAAAAAAAAAAAAAAABgwAAAAAAwAAAAAAAAAAABAAAAHgAQAAAADjzhmAYywILABACIAiVSUACCAAAlAgAIiIEIZMgIIDLAlZGGIQhmkgDIyYeYySCfCAAAAAAAAAAQAAAAAAAAAAAAAAAAAA==

> <PUBCHEM_IUPAC_OPENEYE_NAME>
4-[(3-ethoxyspiro[3.3]heptan-1-yl)amino]-N-methyl-benzamide

> <PUBCHEM_IUPAC_CAS_NAME>
4-[(3-ethoxy-1-spiro[3.3]heptanyl)amino]-N-methylbenzamide

> <PUBCHEM_IUPAC_NAME>
4-[(3-ethoxyspiro[3.3]heptan-1-yl)amino]-N-methylbenzamide

> <PUBCHEM_IUPAC_SYSTEMATIC_NAME>
4-[(3-ethoxyspiro[3.3]heptan-1-yl)amino]-N-methyl-benzamide

> <PUBCHEM_IUPAC_TRADITIONAL_NAME>
4-[(3-ethoxyspiro[3.3]heptan-1-yl)amino]-N-methyl-benzamide

> <PUBCHEM_IUPAC_INCHI>
InChI=1S/C17H24N2O2/c1-3-21-15-11-14(17(15)9-4-10-17)19-13-7-5-12(6-8-13)16(20)18-2/h5-8,14-15,19H,3-4,9-11H2,1-2H3,(H,18,20)

> <PUBCHEM_IUPAC_INCHIKEY>
YOBAEMJKRSAQRB-UHFFFAOYSA-N

> <PUBCHEM_XLOGP3_AA>
2.8

> <PUBCHEM_EXACT_MASS>
288.183778

> <PUBCHEM_MOLECULAR_FORMULA>
C17H24N2O2

> <PUBCHEM_MOLECULAR_WEIGHT>
288.38466

> <PUBCHEM_OPENEYE_CAN_SMILES>
CCOC1CC(C12CCC2)NC3=CC=C(C=C3)C(=O)NC

> <PUBCHEM_OPENEYE_ISO_SMILES>
CCOC1CC(C12CCC2)NC3=CC=C(C=C3)C(=O)NC

> <PUBCHEM_CACTVS_TPSA>
50.4

> <PUBCHEM_MONOISOTOPIC_WEIGHT>
288.183778

> <PUBCHEM_TOTAL_CHARGE>
0

> <PUBCHEM_HEAVY_ATOM_COUNT>
21

> <PUBCHEM_ATOM_DEF_STEREO_COUNT>
0

> <PUBCHEM_ATOM_UDEF_STEREO_COUNT>
2

> <PUBCHEM_BOND_DEF_STEREO_COUNT>
0

> <PUBCHEM_BOND_UDEF_STEREO_COUNT>
0

> <PUBCHEM_ISOTOPIC_ATOM_COUNT>
0

> <PUBCHEM_COMPONENT_COUNT>
1

> <PUBCHEM_CACTVS_TAUTO_COUNT>
5

> <PUBCHEM_COORDINATE_TYPE>
1

> <PUBCHEM_BONDANNOTATIONS>
7  1  3

$$$$
