9930426
  CDK     1110140953

 59 61  0  0  0  0  0  0  0  0999 V2000
    8.0622    0.0000    0.0000 S   0  0  0  0  0  0  0  0  0  0  0  0
    9.0622    0.0000    0.0000 O   0  0  0  0  0  0  0  0  0  0  0  0
    7.0622    0.0000    0.0000 O   0  0  0  0  0  0  0  0  0  0  0  0
    6.3301    0.0000    0.0000 O   0  0  0  0  0  0  0  0  0  0  0  0
    8.0622    1.0000    0.0000 N   0  0  0  0  0  0  0  0  0  0  0  0
    5.4641   -1.5000    0.0000 N   0  0  0  0  0  0  0  0  0  0  0  0
    8.9282    1.5000    0.0000 C   0  0  0  0  0  0  0  0  0  0  0  0
   10.6603    2.5000    0.0000 C   0  0  0  0  0  0  0  0  0  0  0  0
    9.7942    1.0000    0.0000 C   0  0  0  0  0  0  0  0  0  0  0  0
    8.9282    2.5000    0.0000 C   0  0  0  0  0  0  0  0  0  0  0  0
   10.6603    1.5000    0.0000 C   0  0  0  0  0  0  0  0  0  0  0  0
    9.7942    3.0000    0.0000 C   0  0  0  0  0  0  0  0  0  0  0  0
    2.8660    0.0000    0.0000 C   0  0  0  0  0  0  0  0  0  0  0  0
    4.5981   -1.0000    0.0000 C   0  0  0  0  0  0  0  0  0  0  0  0
    2.8660   -1.0000    0.0000 C   0  0  0  0  0  0  0  0  0  0  0  0
    3.7320    0.5000    0.0000 C   0  0  0  0  0  0  0  0  0  0  0  0
    4.5981    0.0000    0.0000 C   0  0  0  0  0  0  0  0  0  0  0  0
    3.7320   -1.5000    0.0000 C   0  0  0  0  0  0  0  0  0  0  0  0
   11.5263    3.0000    0.0000 C   0  0  0  0  0  0  0  0  0  0  0  0
    2.0000    0.5000    0.0000 C   0  0  0  0  0  0  0  0  0  0  0  0
    8.0622   -1.0000    0.0000 C   0  0  0  0  0  0  0  0  0  0  0  0
    6.3301   -1.0000    0.0000 C   0  0  0  0  0  0  0  0  0  0  0  0
    7.1962   -1.5000    0.0000 C   0  0  0  0  0  0  0  0  0  0  0  0
    8.9282   -1.5000    0.0000 C   0  0  0  0  0  0  0  0  0  0  0  0
    7.1962   -2.5000    0.0000 C   0  0  0  0  0  0  0  0  0  0  0  0
    8.9282   -2.5000    0.0000 C   0  0  0  0  0  0  0  0  0  0  0  0
    8.0622   -3.0000    0.0000 C   0  0  0  0  0  0  0  0  0  0  0  0
    8.9282    0.8800    0.0000 H   0  0  0  0  0  0  0  0  0  0  0  0
   11.1972    2.1900    0.0000 H   0  0  0  0  0  0  0  0  0  0  0  0
    8.7162    3.0826    0.0000 H   0  0  0  0  0  0  0  0  0  0  0  0
    8.3176    2.3923    0.0000 H   0  0  0  0  0  0  0  0  0  0  0  0
    9.3957    0.5251    0.0000 H   0  0  0  0  0  0  0  0  0  0  0  0
   10.1928    0.5251    0.0000 H   0  0  0  0  0  0  0  0  0  0  0  0
   10.1928    3.4750    0.0000 H   0  0  0  0  0  0  0  0  0  0  0  0
    9.3957    3.4750    0.0000 H   0  0  0  0  0  0  0  0  0  0  0  0
   10.8723    0.9174    0.0000 H   0  0  0  0  0  0  0  0  0  0  0  0
   11.2708    1.6077    0.0000 H   0  0  0  0  0  0  0  0  0  0  0  0
    2.8660    0.6200    0.0000 H   0  0  0  0  0  0  0  0  0  0  0  0
    4.5981   -1.6200    0.0000 H   0  0  0  0  0  0  0  0  0  0  0  0
    2.2554   -0.8923    0.0000 H   0  0  0  0  0  0  0  0  0  0  0  0
    2.6540   -1.5826    0.0000 H   0  0  0  0  0  0  0  0  0  0  0  0
    4.1306    0.9749    0.0000 H   0  0  0  0  0  0  0  0  0  0  0  0
    3.3335    0.9749    0.0000 H   0  0  0  0  0  0  0  0  0  0  0  0
    3.3335   -1.9750    0.0000 H   0  0  0  0  0  0  0  0  0  0  0  0
    4.1306   -1.9750    0.0000 H   0  0  0  0  0  0  0  0  0  0  0  0
    5.2087   -0.1077    0.0000 H   0  0  0  0  0  0  0  0  0  0  0  0
    4.8101    0.5826    0.0000 H   0  0  0  0  0  0  0  0  0  0  0  0
    7.5252    1.3100    0.0000 H   0  0  0  0  0  0  0  0  0  0  0  0
   11.8363    2.4631    0.0000 H   0  0  0  0  0  0  0  0  0  0  0  0
   12.0632    3.3100    0.0000 H   0  0  0  0  0  0  0  0  0  0  0  0
   11.2163    3.5369    0.0000 H   0  0  0  0  0  0  0  0  0  0  0  0
    2.3100    1.0369    0.0000 H   0  0  0  0  0  0  0  0  0  0  0  0
    1.4631    0.8100    0.0000 H   0  0  0  0  0  0  0  0  0  0  0  0
    1.6900   -0.0369    0.0000 H   0  0  0  0  0  0  0  0  0  0  0  0
    5.4641   -2.1200    0.0000 H   0  0  0  0  0  0  0  0  0  0  0  0
    9.4651   -1.1900    0.0000 H   0  0  0  0  0  0  0  0  0  0  0  0
    6.6592   -2.8100    0.0000 H   0  0  0  0  0  0  0  0  0  0  0  0
    9.4651   -2.8100    0.0000 H   0  0  0  0  0  0  0  0  0  0  0  0
    8.0622   -3.6200    0.0000 H   0  0  0  0  0  0  0  0  0  0  0  0
  1  2  2  0  0  0  0 
  1  3  2  0  0  0  0 
  1  5  1  0  0  0  0 
  1 21  1  0  0  0  0 
  4 22  2  0  0  0  0 
  5  7  1  0  0  0  0 
  5 48  1  0  0  0  0 
  6 14  1  0  0  0  0 
  6 22  1  0  0  0  0 
  6 55  1  0  0  0  0 
  7  9  1  0  0  0  0 
  7 10  1  0  0  0  0 
  7 28  1  0  0  0  0 
  8 11  1  0  0  0  0 
  8 12  1  0  0  0  0 
  8 19  1  0  0  0  0 
  8 29  1  0  0  0  0 
  9 11  1  0  0  0  0 
  9 32  1  0  0  0  0 
  9 33  1  0  0  0  0 
 10 12  1  0  0  0  0 
 10 30  1  0  0  0  0 
 10 31  1  0  0  0  0 
 11 36  1  0  0  0  0 
 11 37  1  0  0  0  0 
 12 34  1  0  0  0  0 
 12 35  1  0  0  0  0 
 13 15  1  0  0  0  0 
 13 16  1  0  0  0  0 
 13 20  1  0  0  0  0 
 13 38  1  0  0  0  0 
 14 17  1  0  0  0  0 
 14 18  1  0  0  0  0 
 14 39  1  0  0  0  0 
 15 18  1  0  0  0  0 
 15 40  1  0  0  0  0 
 15 41  1  0  0  0  0 
 16 17  1  0  0  0  0 
 16 42  1  0  0  0  0 
 16 43  1  0  0  0  0 
 17 46  1  0  0  0  0 
 17 47  1  0  0  0  0 
 18 44  1  0  0  0  0 
 18 45  1  0  0  0  0 
 19 49  1  0  0  0  0 
 19 50  1  0  0  0  0 
 19 51  1  0  0  0  0 
 20 52  1  0  0  0  0 
 20 53  1  0  0  0  0 
 20 54  1  0  0  0  0 
 21 23  1  0  0  0  0 
 21 24  2  0  0  0  0 
 22 23  1  0  0  0  0 
 23 25  2  0  0  0  0 
 24 26  1  0  0  0  0 
 24 56  1  0  0  0  0 
 25 27  1  0  0  0  0 
 25 57  1  0  0  0  0 
 26 27  2  0  0  0  0 
 26 58  1  0  0  0  0 
 27 59  1  0  0  0  0 
M  END
> <cdk:Title>
9930426

> <cdk:Remark>
null

> <PUBCHEM_COMPOUND_CID>
9930426

> <PUBCHEM_COMPOUND_CANONICALIZED>
1

> <PUBCHEM_CACTVS_COMPLEXITY>
585

> <PUBCHEM_CACTVS_HBOND_ACCEPTOR>
4

> <PUBCHEM_CACTVS_HBOND_DONOR>
2

> <PUBCHEM_CACTVS_ROTATABLE_BOND>
5

> <PUBCHEM_CACTVS_SUBSKEYS>
AAADcfB7MABAAAAAAAAAAAAAAAAAAAAAAAAwYMAAAAAAAAABAAAAHgQQQAAADSjB2AQyAYLAAAKIAiFSEHDCABAkAAAIiJkIBMgIIDKAlRGEIQhglgCIiYcYiACOAAAAAAAEAAAQAAAAAAgAAAAAAAAAAA==

> <PUBCHEM_IUPAC_OPENEYE_NAME>
N-(4-methylcyclohexyl)-2-[(4-methylcyclohexyl)sulfamoyl]benzamide

> <PUBCHEM_IUPAC_CAS_NAME>
N-(4-methylcyclohexyl)-2-[(4-methylcyclohexyl)sulfamoyl]benzamide

> <PUBCHEM_IUPAC_NAME>
N-(4-methylcyclohexyl)-2-[(4-methylcyclohexyl)sulfamoyl]benzamide

> <PUBCHEM_IUPAC_SYSTEMATIC_NAME>
N-(4-methylcyclohexyl)-2-[(4-methylcyclohexyl)sulfamoyl]benzamide

> <PUBCHEM_IUPAC_TRADITIONAL_NAME>
N-(4-methylcyclohexyl)-2-[(4-methylcyclohexyl)sulfamoyl]benzamide

> <PUBCHEM_IUPAC_INCHI>
InChI=1S/C21H32N2O3S/c1-15-7-11-17(12-8-15)22-21(24)19-5-3-4-6-20(19)27(25,26)23-18-13-9-16(2)10-14-18/h3-6,15-18,23H,7-14H2,1-2H3,(H,22,24)

> <PUBCHEM_IUPAC_INCHIKEY>
VDYZXJWPHCQPTH-UHFFFAOYSA-N

> <PUBCHEM_XLOGP3_AA>
4.3

> <PUBCHEM_EXACT_MASS>
392.213364

> <PUBCHEM_MOLECULAR_FORMULA>
C21H32N2O3S

> <PUBCHEM_MOLECULAR_WEIGHT>
392.55538

> <PUBCHEM_OPENEYE_CAN_SMILES>
CC1CCC(CC1)NC(=O)C2=CC=CC=C2S(=O)(=O)NC3CCC(CC3)C

> <PUBCHEM_OPENEYE_ISO_SMILES>
CC1CCC(CC1)NC(=O)C2=CC=CC=C2S(=O)(=O)NC3CCC(CC3)C

> <PUBCHEM_CACTVS_TPSA>
83.6

> <PUBCHEM_MONOISOTOPIC_WEIGHT>
392.213364

> <PUBCHEM_TOTAL_CHARGE>
0

> <PUBCHEM_HEAVY_ATOM_COUNT>
27

> <PUBCHEM_ATOM_DEF_STEREO_COUNT>
0

> <PUBCHEM_ATOM_UDEF_STEREO_COUNT>
0

> <PUBCHEM_BOND_DEF_STEREO_COUNT>
0

> <PUBCHEM_BOND_UDEF_STEREO_COUNT>
0

> <PUBCHEM_ISOTOPIC_ATOM_COUNT>
0

> <PUBCHEM_COMPONENT_COUNT>
1

> <PUBCHEM_CACTVS_TAUTO_COUNT>
2

> <PUBCHEM_COORDINATE_TYPE>
1

> <PUBCHEM_BONDANNOTATIONS>
21  23  8

$$$$
9930426
  CDK     1110141344

 59 61  0  0  0  0  0  0  0  0999 V2000
    8.0622    0.0000    0.0000 S   0  0  0  0  0  0  0  0  0  0  0  0
    9.0622    0.0000    0.0000 O   0  0  0  0  0  0  0  0  0  0  0  0
    7.0622    0.0000    0.0000 O   0  0  0  0  0  0  0  0  0  0  0  0
    6.3301    0.0000    0.0000 O   0  0  0  0  0  0  0  0  0  0  0  0
    8.0622    1.0000    0.0000 N   0  0  0  0  0  0  0  0  0  0  0  0
    5.4641   -1.5000    0.0000 N   0  0  0  0  0  0  0  0  0  0  0  0
    8.9282    1.5000    0.0000 C   0  0  0  0  0  0  0  0  0  0  0  0
   10.6603    2.5000    0.0000 C   0  0  0  0  0  0  0  0  0  0  0  0
    9.7942    1.0000    0.0000 C   0  0  0  0  0  0  0  0  0  0  0  0
    8.9282    2.5000    0.0000 C   0  0  0  0  0  0  0  0  0  0  0  0
   10.6603    1.5000    0.0000 C   0  0  0  0  0  0  0  0  0  0  0  0
    9.7942    3.0000    0.0000 C   0  0  0  0  0  0  0  0  0  0  0  0
    2.8660    0.0000    0.0000 C   0  0  0  0  0  0  0  0  0  0  0  0
    4.5981   -1.0000    0.0000 C   0  0  0  0  0  0  0  0  0  0  0  0
    2.8660   -1.0000    0.0000 C   0  0  0  0  0  0  0  0  0  0  0  0
    3.7320    0.5000    0.0000 C   0  0  0  0  0  0  0  0  0  0  0  0
    4.5981    0.0000    0.0000 C   0  0  0  0  0  0  0  0  0  0  0  0
    3.7320   -1.5000    0.0000 C   0  0  0  0  0  0  0  0  0  0  0  0
   11.5263    3.0000    0.0000 C   0  0  0  0  0  0  0  0  0  0  0  0
    2.0000    0.5000    0.0000 C   0  0  0  0  0  0  0  0  0  0  0  0
    8.0622   -1.0000    0.0000 C   0  0  0  0  0  0  0  0  0  0  0  0
    6.3301   -1.0000    0.0000 C   0  0  0  0  0  0  0  0  0  0  0  0
    7.1962   -1.5000    0.0000 C   0  0  0  0  0  0  0  0  0  0  0  0
    8.9282   -1.5000    0.0000 C   0  0  0  0  0  0  0  0  0  0  0  0
    7.1962   -2.5000    0.0000 C   0  0  0  0  0  0  0  0  0  0  0  0
    8.9282   -2.5000    0.0000 C   0  0  0  0  0  0  0  0  0  0  0  0
    8.0622   -3.0000    0.0000 C   0  0  0  0  0  0  0  0  0  0  0  0
    8.9282    0.8800    0.0000 H   0  0  0  0  0  0  0  0  0  0  0  0
   11.1972    2.1900    0.0000 H   0  0  0  0  0  0  0  0  0  0  0  0
    8.7162    3.0826    0.0000 H   0  0  0  0  0  0  0  0  0  0  0  0
    8.3176    2.3923    0.0000 H   0  0  0  0  0  0  0  0  0  0  0  0
    9.3957    0.5251    0.0000 H   0  0  0  0  0  0  0  0  0  0  0  0
   10.1928    0.5251    0.0000 H   0  0  0  0  0  0  0  0  0  0  0  0
   10.1928    3.4750    0.0000 H   0  0  0  0  0  0  0  0  0  0  0  0
    9.3957    3.4750    0.0000 H   0  0  0  0  0  0  0  0  0  0  0  0
   10.8723    0.9174    0.0000 H   0  0  0  0  0  0  0  0  0  0  0  0
   11.2708    1.6077    0.0000 H   0  0  0  0  0  0  0  0  0  0  0  0
    2.8660    0.6200    0.0000 H   0  0  0  0  0  0  0  0  0  0  0  0
    4.5981   -1.6200    0.0000 H   0  0  0  0  0  0  0  0  0  0  0  0
    2.2554   -0.8923    0.0000 H   0  0  0  0  0  0  0  0  0  0  0  0
    2.6540   -1.5826    0.0000 H   0  0  0  0  0  0  0  0  0  0  0  0
    4.1306    0.9749    0.0000 H   0  0  0  0  0  0  0  0  0  0  0  0
    3.3335    0.9749    0.0000 H   0  0  0  0  0  0  0  0  0  0  0  0
    3.3335   -1.9750    0.0000 H   0  0  0  0  0  0  0  0  0  0  0  0
    4.1306   -1.9750    0.0000 H   0  0  0  0  0  0  0  0  0  0  0  0
    5.2087   -0.1077    0.0000 H   0  0  0  0  0  0  0  0  0  0  0  0
    4.8101    0.5826    0.0000 H   0  0  0  0  0  0  0  0  0  0  0  0
    7.5252    1.3100    0.0000 H   0  0  0  0  0  0  0  0  0  0  0  0
   11.8363    2.4631    0.0000 H   0  0  0  0  0  0  0  0  0  0  0  0
   12.0632    3.3100    0.0000 H   0  0  0  0  0  0  0  0  0  0  0  0
   11.2163    3.5369    0.0000 H   0  0  0  0  0  0  0  0  0  0  0  0
    2.3100    1.0369    0.0000 H   0  0  0  0  0  0  0  0  0  0  0  0
    1.4631    0.8100    0.0000 H   0  0  0  0  0  0  0  0  0  0  0  0
    1.6900   -0.0369    0.0000 H   0  0  0  0  0  0  0  0  0  0  0  0
    5.4641   -2.1200    0.0000 H   0  0  0  0  0  0  0  0  0  0  0  0
    9.4651   -1.1900    0.0000 H   0  0  0  0  0  0  0  0  0  0  0  0
    6.6592   -2.8100    0.0000 H   0  0  0  0  0  0  0  0  0  0  0  0
    9.4651   -2.8100    0.0000 H   0  0  0  0  0  0  0  0  0  0  0  0
    8.0622   -3.6200    0.0000 H   0  0  0  0  0  0  0  0  0  0  0  0
  1  2  2  0  0  0  0 
  1  3  2  0  0  0  0 
  1  5  1  0  0  0  0 
  1 21  1  0  0  0  0 
  4 22  2  0  0  0  0 
  5  7  1  0  0  0  0 
  5 48  1  0  0  0  0 
  6 14  1  0  0  0  0 
  6 22  1  0  0  0  0 
  6 55  1  0  0  0  0 
  7  9  1  0  0  0  0 
  7 10  1  0  0  0  0 
  7 28  1  0  0  0  0 
  8 11  1  0  0  0  0 
  8 12  1  0  0  0  0 
  8 19  1  0  0  0  0 
  8 29  1  0  0  0  0 
  9 11  1  0  0  0  0 
  9 32  1  0  0  0  0 
  9 33  1  0  0  0  0 
 10 12  1  0  0  0  0 
 10 30  1  0  0  0  0 
 10 31  1  0  0  0  0 
 11 36  1  0  0  0  0 
 11 37  1  0  0  0  0 
 12 34  1  0  0  0  0 
 12 35  1  0  0  0  0 
 13 15  1  0  0  0  0 
 13 16  1  0  0  0  0 
 13 20  1  0  0  0  0 
 13 38  1  0  0  0  0 
 14 17  1  0  0  0  0 
 14 18  1  0  0  0  0 
 14 39  1  0  0  0  0 
 15 18  1  0  0  0  0 
 15 40  1  0  0  0  0 
 15 41  1  0  0  0  0 
 16 17  1  0  0  0  0 
 16 42  1  0  0  0  0 
 16 43  1  0  0  0  0 
 17 46  1  0  0  0  0 
 17 47  1  0  0  0  0 
 18 44  1  0  0  0  0 
 18 45  1  0  0  0  0 
 19 49  1  0  0  0  0 
 19 50  1  0  0  0  0 
 19 51  1  0  0  0  0 
 20 52  1  0  0  0  0 
 20 53  1  0  0  0  0 
 20 54  1  0  0  0  0 
 21 23  1  0  0  0  0 
 21 24  2  0  0  0  0 
 22 23  1  0  0  0  0 
 23 25  2  0  0  0  0 
 24 26  1  0  0  0  0 
 24 56  1  0  0  0  0 
 25 27  1  0  0  0  0 
 25 57  1  0  0  0  0 
 26 27  2  0  0  0  0 
 26 58  1  0  0  0  0 
 27 59  1  0  0  0  0 
M  END
> <cdk:Title>
9930426

> <cdk:Remark>
null

> <PUBCHEM_COMPOUND_CID>
9930426

> <PUBCHEM_COMPOUND_CANONICALIZED>
1

> <PUBCHEM_CACTVS_COMPLEXITY>
585

> <PUBCHEM_CACTVS_HBOND_ACCEPTOR>
4

> <PUBCHEM_CACTVS_HBOND_DONOR>
2

> <PUBCHEM_CACTVS_ROTATABLE_BOND>
5

> <PUBCHEM_CACTVS_SUBSKEYS>
AAADcfB7MABAAAAAAAAAAAAAAAAAAAAAAAAwYMAAAAAAAAABAAAAHgQQQAAADSjB2AQyAYLAAAKIAiFSEHDCABAkAAAIiJkIBMgIIDKAlRGEIQhglgCIiYcYiACOAAAAAAAEAAAQAAAAAAgAAAAAAAAAAA==

> <PUBCHEM_IUPAC_OPENEYE_NAME>
N-(4-methylcyclohexyl)-2-[(4-methylcyclohexyl)sulfamoyl]benzamide

> <PUBCHEM_IUPAC_CAS_NAME>
N-(4-methylcyclohexyl)-2-[(4-methylcyclohexyl)sulfamoyl]benzamide

> <PUBCHEM_IUPAC_NAME>
N-(4-methylcyclohexyl)-2-[(4-methylcyclohexyl)sulfamoyl]benzamide

> <PUBCHEM_IUPAC_SYSTEMATIC_NAME>
N-(4-methylcyclohexyl)-2-[(4-methylcyclohexyl)sulfamoyl]benzamide

> <PUBCHEM_IUPAC_TRADITIONAL_NAME>
N-(4-methylcyclohexyl)-2-[(4-methylcyclohexyl)sulfamoyl]benzamide

> <PUBCHEM_IUPAC_INCHI>
InChI=1S/C21H32N2O3S/c1-15-7-11-17(12-8-15)22-21(24)19-5-3-4-6-20(19)27(25,26)23-18-13-9-16(2)10-14-18/h3-6,15-18,23H,7-14H2,1-2H3,(H,22,24)

> <PUBCHEM_IUPAC_INCHIKEY>
VDYZXJWPHCQPTH-UHFFFAOYSA-N

> <PUBCHEM_XLOGP3_AA>
4.3

> <PUBCHEM_EXACT_MASS>
392.213364

> <PUBCHEM_MOLECULAR_FORMULA>
C21H32N2O3S

> <PUBCHEM_MOLECULAR_WEIGHT>
392.55538

> <PUBCHEM_OPENEYE_CAN_SMILES>
CC1CCC(CC1)NC(=O)C2=CC=CC=C2S(=O)(=O)NC3CCC(CC3)C

> <PUBCHEM_OPENEYE_ISO_SMILES>
CC1CCC(CC1)NC(=O)C2=CC=CC=C2S(=O)(=O)NC3CCC(CC3)C

> <PUBCHEM_CACTVS_TPSA>
83.6

> <PUBCHEM_MONOISOTOPIC_WEIGHT>
392.213364

> <PUBCHEM_TOTAL_CHARGE>
0

> <PUBCHEM_HEAVY_ATOM_COUNT>
27

> <PUBCHEM_ATOM_DEF_STEREO_COUNT>
0

> <PUBCHEM_ATOM_UDEF_STEREO_COUNT>
0

> <PUBCHEM_BOND_DEF_STEREO_COUNT>
0

> <PUBCHEM_BOND_UDEF_STEREO_COUNT>
0

> <PUBCHEM_ISOTOPIC_ATOM_COUNT>
0

> <PUBCHEM_COMPONENT_COUNT>
1

> <PUBCHEM_CACTVS_TAUTO_COUNT>
2

> <PUBCHEM_COORDINATE_TYPE>
1

> <PUBCHEM_BONDANNOTATIONS>
21  23  8

$$$$
9930426
  CDK     1110141346

 59 61  0  0  0  0  0  0  0  0999 V2000
    8.0622    0.0000    0.0000 S   0  0  0  0  0  0  0  0  0  0  0  0
    9.0622    0.0000    0.0000 O   0  0  0  0  0  0  0  0  0  0  0  0
    7.0622    0.0000    0.0000 O   0  0  0  0  0  0  0  0  0  0  0  0
    6.3301    0.0000    0.0000 O   0  0  0  0  0  0  0  0  0  0  0  0
    8.0622    1.0000    0.0000 N   0  0  0  0  0  0  0  0  0  0  0  0
    5.4641   -1.5000    0.0000 N   0  0  0  0  0  0  0  0  0  0  0  0
    8.9282    1.5000    0.0000 C   0  0  0  0  0  0  0  0  0  0  0  0
   10.6603    2.5000    0.0000 C   0  0  0  0  0  0  0  0  0  0  0  0
    9.7942    1.0000    0.0000 C   0  0  0  0  0  0  0  0  0  0  0  0
    8.9282    2.5000    0.0000 C   0  0  0  0  0  0  0  0  0  0  0  0
   10.6603    1.5000    0.0000 C   0  0  0  0  0  0  0  0  0  0  0  0
    9.7942    3.0000    0.0000 C   0  0  0  0  0  0  0  0  0  0  0  0
    2.8660    0.0000    0.0000 C   0  0  0  0  0  0  0  0  0  0  0  0
    4.5981   -1.0000    0.0000 C   0  0  0  0  0  0  0  0  0  0  0  0
    2.8660   -1.0000    0.0000 C   0  0  0  0  0  0  0  0  0  0  0  0
    3.7320    0.5000    0.0000 C   0  0  0  0  0  0  0  0  0  0  0  0
    4.5981    0.0000    0.0000 C   0  0  0  0  0  0  0  0  0  0  0  0
    3.7320   -1.5000    0.0000 C   0  0  0  0  0  0  0  0  0  0  0  0
   11.5263    3.0000    0.0000 C   0  0  0  0  0  0  0  0  0  0  0  0
    2.0000    0.5000    0.0000 C   0  0  0  0  0  0  0  0  0  0  0  0
    8.0622   -1.0000    0.0000 C   0  0  0  0  0  0  0  0  0  0  0  0
    6.3301   -1.0000    0.0000 C   0  0  0  0  0  0  0  0  0  0  0  0
    7.1962   -1.5000    0.0000 C   0  0  0  0  0  0  0  0  0  0  0  0
    8.9282   -1.5000    0.0000 C   0  0  0  0  0  0  0  0  0  0  0  0
    7.1962   -2.5000    0.0000 C   0  0  0  0  0  0  0  0  0  0  0  0
    8.9282   -2.5000    0.0000 C   0  0  0  0  0  0  0  0  0  0  0  0
    8.0622   -3.0000    0.0000 C   0  0  0  0  0  0  0  0  0  0  0  0
    8.9282    0.8800    0.0000 H   0  0  0  0  0  0  0  0  0  0  0  0
   11.1972    2.1900    0.0000 H   0  0  0  0  0  0  0  0  0  0  0  0
    8.7162    3.0826    0.0000 H   0  0  0  0  0  0  0  0  0  0  0  0
    8.3176    2.3923    0.0000 H   0  0  0  0  0  0  0  0  0  0  0  0
    9.3957    0.5251    0.0000 H   0  0  0  0  0  0  0  0  0  0  0  0
   10.1928    0.5251    0.0000 H   0  0  0  0  0  0  0  0  0  0  0  0
   10.1928    3.4750    0.0000 H   0  0  0  0  0  0  0  0  0  0  0  0
    9.3957    3.4750    0.0000 H   0  0  0  0  0  0  0  0  0  0  0  0
   10.8723    0.9174    0.0000 H   0  0  0  0  0  0  0  0  0  0  0  0
   11.2708    1.6077    0.0000 H   0  0  0  0  0  0  0  0  0  0  0  0
    2.8660    0.6200    0.0000 H   0  0  0  0  0  0  0  0  0  0  0  0
    4.5981   -1.6200    0.0000 H   0  0  0  0  0  0  0  0  0  0  0  0
    2.2554   -0.8923    0.0000 H   0  0  0  0  0  0  0  0  0  0  0  0
    2.6540   -1.5826    0.0000 H   0  0  0  0  0  0  0  0  0  0  0  0
    4.1306    0.9749    0.0000 H   0  0  0  0  0  0  0  0  0  0  0  0
    3.3335    0.9749    0.0000 H   0  0  0  0  0  0  0  0  0  0  0  0
    3.3335   -1.9750    0.0000 H   0  0  0  0  0  0  0  0  0  0  0  0
    4.1306   -1.9750    0.0000 H   0  0  0  0  0  0  0  0  0  0  0  0
    5.2087   -0.1077    0.0000 H   0  0  0  0  0  0  0  0  0  0  0  0
    4.8101    0.5826    0.0000 H   0  0  0  0  0  0  0  0  0  0  0  0
    7.5252    1.3100    0.0000 H   0  0  0  0  0  0  0  0  0  0  0  0
   11.8363    2.4631    0.0000 H   0  0  0  0  0  0  0  0  0  0  0  0
   12.0632    3.3100    0.0000 H   0  0  0  0  0  0  0  0  0  0  0  0
   11.2163    3.5369    0.0000 H   0  0  0  0  0  0  0  0  0  0  0  0
    2.3100    1.0369    0.0000 H   0  0  0  0  0  0  0  0  0  0  0  0
    1.4631    0.8100    0.0000 H   0  0  0  0  0  0  0  0  0  0  0  0
    1.6900   -0.0369    0.0000 H   0  0  0  0  0  0  0  0  0  0  0  0
    5.4641   -2.1200    0.0000 H   0  0  0  0  0  0  0  0  0  0  0  0
    9.4651   -1.1900    0.0000 H   0  0  0  0  0  0  0  0  0  0  0  0
    6.6592   -2.8100    0.0000 H   0  0  0  0  0  0  0  0  0  0  0  0
    9.4651   -2.8100    0.0000 H   0  0  0  0  0  0  0  0  0  0  0  0
    8.0622   -3.6200    0.0000 H   0  0  0  0  0  0  0  0  0  0  0  0
  1  2  2  0  0  0  0 
  1  3  2  0  0  0  0 
  1  5  1  0  0  0  0 
  1 21  1  0  0  0  0 
  4 22  2  0  0  0  0 
  5  7  1  0  0  0  0 
  5 48  1  0  0  0  0 
  6 14  1  0  0  0  0 
  6 22  1  0  0  0  0 
  6 55  1  0  0  0  0 
  7  9  1  0  0  0  0 
  7 10  1  0  0  0  0 
  7 28  1  0  0  0  0 
  8 11  1  0  0  0  0 
  8 12  1  0  0  0  0 
  8 19  1  0  0  0  0 
  8 29  1  0  0  0  0 
  9 11  1  0  0  0  0 
  9 32  1  0  0  0  0 
  9 33  1  0  0  0  0 
 10 12  1  0  0  0  0 
 10 30  1  0  0  0  0 
 10 31  1  0  0  0  0 
 11 36  1  0  0  0  0 
 11 37  1  0  0  0  0 
 12 34  1  0  0  0  0 
 12 35  1  0  0  0  0 
 13 15  1  0  0  0  0 
 13 16  1  0  0  0  0 
 13 20  1  0  0  0  0 
 13 38  1  0  0  0  0 
 14 17  1  0  0  0  0 
 14 18  1  0  0  0  0 
 14 39  1  0  0  0  0 
 15 18  1  0  0  0  0 
 15 40  1  0  0  0  0 
 15 41  1  0  0  0  0 
 16 17  1  0  0  0  0 
 16 42  1  0  0  0  0 
 16 43  1  0  0  0  0 
 17 46  1  0  0  0  0 
 17 47  1  0  0  0  0 
 18 44  1  0  0  0  0 
 18 45  1  0  0  0  0 
 19 49  1  0  0  0  0 
 19 50  1  0  0  0  0 
 19 51  1  0  0  0  0 
 20 52  1  0  0  0  0 
 20 53  1  0  0  0  0 
 20 54  1  0  0  0  0 
 21 23  1  0  0  0  0 
 21 24  2  0  0  0  0 
 22 23  1  0  0  0  0 
 23 25  2  0  0  0  0 
 24 26  1  0  0  0  0 
 24 56  1  0  0  0  0 
 25 27  1  0  0  0  0 
 25 57  1  0  0  0  0 
 26 27  2  0  0  0  0 
 26 58  1  0  0  0  0 
 27 59  1  0  0  0  0 
M  END
> <cdk:Title>
9930426

> <cdk:Remark>
null

> <PUBCHEM_COMPOUND_CID>
9930426

> <PUBCHEM_COMPOUND_CANONICALIZED>
1

> <PUBCHEM_CACTVS_COMPLEXITY>
585

> <PUBCHEM_CACTVS_HBOND_ACCEPTOR>
4

> <PUBCHEM_CACTVS_HBOND_DONOR>
2

> <PUBCHEM_CACTVS_ROTATABLE_BOND>
5

> <PUBCHEM_CACTVS_SUBSKEYS>
AAADcfB7MABAAAAAAAAAAAAAAAAAAAAAAAAwYMAAAAAAAAABAAAAHgQQQAAADSjB2AQyAYLAAAKIAiFSEHDCABAkAAAIiJkIBMgIIDKAlRGEIQhglgCIiYcYiACOAAAAAAAEAAAQAAAAAAgAAAAAAAAAAA==

> <PUBCHEM_IUPAC_OPENEYE_NAME>
N-(4-methylcyclohexyl)-2-[(4-methylcyclohexyl)sulfamoyl]benzamide

> <PUBCHEM_IUPAC_CAS_NAME>
N-(4-methylcyclohexyl)-2-[(4-methylcyclohexyl)sulfamoyl]benzamide

> <PUBCHEM_IUPAC_NAME>
N-(4-methylcyclohexyl)-2-[(4-methylcyclohexyl)sulfamoyl]benzamide

> <PUBCHEM_IUPAC_SYSTEMATIC_NAME>
N-(4-methylcyclohexyl)-2-[(4-methylcyclohexyl)sulfamoyl]benzamide

> <PUBCHEM_IUPAC_TRADITIONAL_NAME>
N-(4-methylcyclohexyl)-2-[(4-methylcyclohexyl)sulfamoyl]benzamide

> <PUBCHEM_IUPAC_INCHI>
InChI=1S/C21H32N2O3S/c1-15-7-11-17(12-8-15)22-21(24)19-5-3-4-6-20(19)27(25,26)23-18-13-9-16(2)10-14-18/h3-6,15-18,23H,7-14H2,1-2H3,(H,22,24)

> <PUBCHEM_IUPAC_INCHIKEY>
VDYZXJWPHCQPTH-UHFFFAOYSA-N

> <PUBCHEM_XLOGP3_AA>
4.3

> <PUBCHEM_EXACT_MASS>
392.213364

> <PUBCHEM_MOLECULAR_FORMULA>
C21H32N2O3S

> <PUBCHEM_MOLECULAR_WEIGHT>
392.55538

> <PUBCHEM_OPENEYE_CAN_SMILES>
CC1CCC(CC1)NC(=O)C2=CC=CC=C2S(=O)(=O)NC3CCC(CC3)C

> <PUBCHEM_OPENEYE_ISO_SMILES>
CC1CCC(CC1)NC(=O)C2=CC=CC=C2S(=O)(=O)NC3CCC(CC3)C

> <PUBCHEM_CACTVS_TPSA>
83.6

> <PUBCHEM_MONOISOTOPIC_WEIGHT>
392.213364

> <PUBCHEM_TOTAL_CHARGE>
0

> <PUBCHEM_HEAVY_ATOM_COUNT>
27

> <PUBCHEM_ATOM_DEF_STEREO_COUNT>
0

> <PUBCHEM_ATOM_UDEF_STEREO_COUNT>
0

> <PUBCHEM_BOND_DEF_STEREO_COUNT>
0

> <PUBCHEM_BOND_UDEF_STEREO_COUNT>
0

> <PUBCHEM_ISOTOPIC_ATOM_COUNT>
0

> <PUBCHEM_COMPONENT_COUNT>
1

> <PUBCHEM_CACTVS_TAUTO_COUNT>
2

> <PUBCHEM_COORDINATE_TYPE>
1

> <PUBCHEM_BONDANNOTATIONS>
21  23  8

$$$$
9930426
  CDK     1110141352

 59 61  0  0  0  0  0  0  0  0999 V2000
    8.0622    0.0000    0.0000 S   0  0  0  0  0  0  0  0  0  0  0  0
    9.0622    0.0000    0.0000 O   0  0  0  0  0  0  0  0  0  0  0  0
    7.0622    0.0000    0.0000 O   0  0  0  0  0  0  0  0  0  0  0  0
    6.3301    0.0000    0.0000 O   0  0  0  0  0  0  0  0  0  0  0  0
    8.0622    1.0000    0.0000 N   0  0  0  0  0  0  0  0  0  0  0  0
    5.4641   -1.5000    0.0000 N   0  0  0  0  0  0  0  0  0  0  0  0
    8.9282    1.5000    0.0000 C   0  0  0  0  0  0  0  0  0  0  0  0
   10.6603    2.5000    0.0000 C   0  0  0  0  0  0  0  0  0  0  0  0
    9.7942    1.0000    0.0000 C   0  0  0  0  0  0  0  0  0  0  0  0
    8.9282    2.5000    0.0000 C   0  0  0  0  0  0  0  0  0  0  0  0
   10.6603    1.5000    0.0000 C   0  0  0  0  0  0  0  0  0  0  0  0
    9.7942    3.0000    0.0000 C   0  0  0  0  0  0  0  0  0  0  0  0
    2.8660    0.0000    0.0000 C   0  0  0  0  0  0  0  0  0  0  0  0
    4.5981   -1.0000    0.0000 C   0  0  0  0  0  0  0  0  0  0  0  0
    2.8660   -1.0000    0.0000 C   0  0  0  0  0  0  0  0  0  0  0  0
    3.7320    0.5000    0.0000 C   0  0  0  0  0  0  0  0  0  0  0  0
    4.5981    0.0000    0.0000 C   0  0  0  0  0  0  0  0  0  0  0  0
    3.7320   -1.5000    0.0000 C   0  0  0  0  0  0  0  0  0  0  0  0
   11.5263    3.0000    0.0000 C   0  0  0  0  0  0  0  0  0  0  0  0
    2.0000    0.5000    0.0000 C   0  0  0  0  0  0  0  0  0  0  0  0
    8.0622   -1.0000    0.0000 C   0  0  0  0  0  0  0  0  0  0  0  0
    6.3301   -1.0000    0.0000 C   0  0  0  0  0  0  0  0  0  0  0  0
    7.1962   -1.5000    0.0000 C   0  0  0  0  0  0  0  0  0  0  0  0
    8.9282   -1.5000    0.0000 C   0  0  0  0  0  0  0  0  0  0  0  0
    7.1962   -2.5000    0.0000 C   0  0  0  0  0  0  0  0  0  0  0  0
    8.9282   -2.5000    0.0000 C   0  0  0  0  0  0  0  0  0  0  0  0
    8.0622   -3.0000    0.0000 C   0  0  0  0  0  0  0  0  0  0  0  0
    8.9282    0.8800    0.0000 H   0  0  0  0  0  0  0  0  0  0  0  0
   11.1972    2.1900    0.0000 H   0  0  0  0  0  0  0  0  0  0  0  0
    8.7162    3.0826    0.0000 H   0  0  0  0  0  0  0  0  0  0  0  0
    8.3176    2.3923    0.0000 H   0  0  0  0  0  0  0  0  0  0  0  0
    9.3957    0.5251    0.0000 H   0  0  0  0  0  0  0  0  0  0  0  0
   10.1928    0.5251    0.0000 H   0  0  0  0  0  0  0  0  0  0  0  0
   10.1928    3.4750    0.0000 H   0  0  0  0  0  0  0  0  0  0  0  0
    9.3957    3.4750    0.0000 H   0  0  0  0  0  0  0  0  0  0  0  0
   10.8723    0.9174    0.0000 H   0  0  0  0  0  0  0  0  0  0  0  0
   11.2708    1.6077    0.0000 H   0  0  0  0  0  0  0  0  0  0  0  0
    2.8660    0.6200    0.0000 H   0  0  0  0  0  0  0  0  0  0  0  0
    4.5981   -1.6200    0.0000 H   0  0  0  0  0  0  0  0  0  0  0  0
    2.2554   -0.8923    0.0000 H   0  0  0  0  0  0  0  0  0  0  0  0
    2.6540   -1.5826    0.0000 H   0  0  0  0  0  0  0  0  0  0  0  0
    4.1306    0.9749    0.0000 H   0  0  0  0  0  0  0  0  0  0  0  0
    3.3335    0.9749    0.0000 H   0  0  0  0  0  0  0  0  0  0  0  0
    3.3335   -1.9750    0.0000 H   0  0  0  0  0  0  0  0  0  0  0  0
    4.1306   -1.9750    0.0000 H   0  0  0  0  0  0  0  0  0  0  0  0
    5.2087   -0.1077    0.0000 H   0  0  0  0  0  0  0  0  0  0  0  0
    4.8101    0.5826    0.0000 H   0  0  0  0  0  0  0  0  0  0  0  0
    7.5252    1.3100    0.0000 H   0  0  0  0  0  0  0  0  0  0  0  0
   11.8363    2.4631    0.0000 H   0  0  0  0  0  0  0  0  0  0  0  0
   12.0632    3.3100    0.0000 H   0  0  0  0  0  0  0  0  0  0  0  0
   11.2163    3.5369    0.0000 H   0  0  0  0  0  0  0  0  0  0  0  0
    2.3100    1.0369    0.0000 H   0  0  0  0  0  0  0  0  0  0  0  0
    1.4631    0.8100    0.0000 H   0  0  0  0  0  0  0  0  0  0  0  0
    1.6900   -0.0369    0.0000 H   0  0  0  0  0  0  0  0  0  0  0  0
    5.4641   -2.1200    0.0000 H   0  0  0  0  0  0  0  0  0  0  0  0
    9.4651   -1.1900    0.0000 H   0  0  0  0  0  0  0  0  0  0  0  0
    6.6592   -2.8100    0.0000 H   0  0  0  0  0  0  0  0  0  0  0  0
    9.4651   -2.8100    0.0000 H   0  0  0  0  0  0  0  0  0  0  0  0
    8.0622   -3.6200    0.0000 H   0  0  0  0  0  0  0  0  0  0  0  0
  1  2  2  0  0  0  0 
  1  3  2  0  0  0  0 
  1  5  1  0  0  0  0 
  1 21  1  0  0  0  0 
  4 22  2  0  0  0  0 
  5  7  1  0  0  0  0 
  5 48  1  0  0  0  0 
  6 14  1  0  0  0  0 
  6 22  1  0  0  0  0 
  6 55  1  0  0  0  0 
  7  9  1  0  0  0  0 
  7 10  1  0  0  0  0 
  7 28  1  0  0  0  0 
  8 11  1  0  0  0  0 
  8 12  1  0  0  0  0 
  8 19  1  0  0  0  0 
  8 29  1  0  0  0  0 
  9 11  1  0  0  0  0 
  9 32  1  0  0  0  0 
  9 33  1  0  0  0  0 
 10 12  1  0  0  0  0 
 10 30  1  0  0  0  0 
 10 31  1  0  0  0  0 
 11 36  1  0  0  0  0 
 11 37  1  0  0  0  0 
 12 34  1  0  0  0  0 
 12 35  1  0  0  0  0 
 13 15  1  0  0  0  0 
 13 16  1  0  0  0  0 
 13 20  1  0  0  0  0 
 13 38  1  0  0  0  0 
 14 17  1  0  0  0  0 
 14 18  1  0  0  0  0 
 14 39  1  0  0  0  0 
 15 18  1  0  0  0  0 
 15 40  1  0  0  0  0 
 15 41  1  0  0  0  0 
 16 17  1  0  0  0  0 
 16 42  1  0  0  0  0 
 16 43  1  0  0  0  0 
 17 46  1  0  0  0  0 
 17 47  1  0  0  0  0 
 18 44  1  0  0  0  0 
 18 45  1  0  0  0  0 
 19 49  1  0  0  0  0 
 19 50  1  0  0  0  0 
 19 51  1  0  0  0  0 
 20 52  1  0  0  0  0 
 20 53  1  0  0  0  0 
 20 54  1  0  0  0  0 
 21 23  1  0  0  0  0 
 21 24  2  0  0  0  0 
 22 23  1  0  0  0  0 
 23 25  2  0  0  0  0 
 24 26  1  0  0  0  0 
 24 56  1  0  0  0  0 
 25 27  1  0  0  0  0 
 25 57  1  0  0  0  0 
 26 27  2  0  0  0  0 
 26 58  1  0  0  0  0 
 27 59  1  0  0  0  0 
M  END
> <cdk:Title>
9930426

> <cdk:Remark>
null

> <PUBCHEM_COMPOUND_CID>
9930426

> <PUBCHEM_COMPOUND_CANONICALIZED>
1

> <PUBCHEM_CACTVS_COMPLEXITY>
585

> <PUBCHEM_CACTVS_HBOND_ACCEPTOR>
4

> <PUBCHEM_CACTVS_HBOND_DONOR>
2

> <PUBCHEM_CACTVS_ROTATABLE_BOND>
5

> <PUBCHEM_CACTVS_SUBSKEYS>
AAADcfB7MABAAAAAAAAAAAAAAAAAAAAAAAAwYMAAAAAAAAABAAAAHgQQQAAADSjB2AQyAYLAAAKIAiFSEHDCABAkAAAIiJkIBMgIIDKAlRGEIQhglgCIiYcYiACOAAAAAAAEAAAQAAAAAAgAAAAAAAAAAA==

> <PUBCHEM_IUPAC_OPENEYE_NAME>
N-(4-methylcyclohexyl)-2-[(4-methylcyclohexyl)sulfamoyl]benzamide

> <PUBCHEM_IUPAC_CAS_NAME>
N-(4-methylcyclohexyl)-2-[(4-methylcyclohexyl)sulfamoyl]benzamide

> <PUBCHEM_IUPAC_NAME>
N-(4-methylcyclohexyl)-2-[(4-methylcyclohexyl)sulfamoyl]benzamide

> <PUBCHEM_IUPAC_SYSTEMATIC_NAME>
N-(4-methylcyclohexyl)-2-[(4-methylcyclohexyl)sulfamoyl]benzamide

> <PUBCHEM_IUPAC_TRADITIONAL_NAME>
N-(4-methylcyclohexyl)-2-[(4-methylcyclohexyl)sulfamoyl]benzamide

> <PUBCHEM_IUPAC_INCHI>
InChI=1S/C21H32N2O3S/c1-15-7-11-17(12-8-15)22-21(24)19-5-3-4-6-20(19)27(25,26)23-18-13-9-16(2)10-14-18/h3-6,15-18,23H,7-14H2,1-2H3,(H,22,24)

> <PUBCHEM_IUPAC_INCHIKEY>
VDYZXJWPHCQPTH-UHFFFAOYSA-N

> <PUBCHEM_XLOGP3_AA>
4.3

> <PUBCHEM_EXACT_MASS>
392.213364

> <PUBCHEM_MOLECULAR_FORMULA>
C21H32N2O3S

> <PUBCHEM_MOLECULAR_WEIGHT>
392.55538

> <PUBCHEM_OPENEYE_CAN_SMILES>
CC1CCC(CC1)NC(=O)C2=CC=CC=C2S(=O)(=O)NC3CCC(CC3)C

> <PUBCHEM_OPENEYE_ISO_SMILES>
CC1CCC(CC1)NC(=O)C2=CC=CC=C2S(=O)(=O)NC3CCC(CC3)C

> <PUBCHEM_CACTVS_TPSA>
83.6

> <PUBCHEM_MONOISOTOPIC_WEIGHT>
392.213364

> <PUBCHEM_TOTAL_CHARGE>
0

> <PUBCHEM_HEAVY_ATOM_COUNT>
27

> <PUBCHEM_ATOM_DEF_STEREO_COUNT>
0

> <PUBCHEM_ATOM_UDEF_STEREO_COUNT>
0

> <PUBCHEM_BOND_DEF_STEREO_COUNT>
0

> <PUBCHEM_BOND_UDEF_STEREO_COUNT>
0

> <PUBCHEM_ISOTOPIC_ATOM_COUNT>
0

> <PUBCHEM_COMPONENT_COUNT>
1

> <PUBCHEM_CACTVS_TAUTO_COUNT>
2

> <PUBCHEM_COORDINATE_TYPE>
1

> <PUBCHEM_BONDANNOTATIONS>
21  23  8

$$$$
9930426
  CDK     1110141358

 59 61  0  0  0  0  0  0  0  0999 V2000
    8.0622    0.0000    0.0000 S   0  0  0  0  0  0  0  0  0  0  0  0
    9.0622    0.0000    0.0000 O   0  0  0  0  0  0  0  0  0  0  0  0
    7.0622    0.0000    0.0000 O   0  0  0  0  0  0  0  0  0  0  0  0
    6.3301    0.0000    0.0000 O   0  0  0  0  0  0  0  0  0  0  0  0
    8.0622    1.0000    0.0000 N   0  0  0  0  0  0  0  0  0  0  0  0
    5.4641   -1.5000    0.0000 N   0  0  0  0  0  0  0  0  0  0  0  0
    8.9282    1.5000    0.0000 C   0  0  0  0  0  0  0  0  0  0  0  0
   10.6603    2.5000    0.0000 C   0  0  0  0  0  0  0  0  0  0  0  0
    9.7942    1.0000    0.0000 C   0  0  0  0  0  0  0  0  0  0  0  0
    8.9282    2.5000    0.0000 C   0  0  0  0  0  0  0  0  0  0  0  0
   10.6603    1.5000    0.0000 C   0  0  0  0  0  0  0  0  0  0  0  0
    9.7942    3.0000    0.0000 C   0  0  0  0  0  0  0  0  0  0  0  0
    2.8660    0.0000    0.0000 C   0  0  0  0  0  0  0  0  0  0  0  0
    4.5981   -1.0000    0.0000 C   0  0  0  0  0  0  0  0  0  0  0  0
    2.8660   -1.0000    0.0000 C   0  0  0  0  0  0  0  0  0  0  0  0
    3.7320    0.5000    0.0000 C   0  0  0  0  0  0  0  0  0  0  0  0
    4.5981    0.0000    0.0000 C   0  0  0  0  0  0  0  0  0  0  0  0
    3.7320   -1.5000    0.0000 C   0  0  0  0  0  0  0  0  0  0  0  0
   11.5263    3.0000    0.0000 C   0  0  0  0  0  0  0  0  0  0  0  0
    2.0000    0.5000    0.0000 C   0  0  0  0  0  0  0  0  0  0  0  0
    8.0622   -1.0000    0.0000 C   0  0  0  0  0  0  0  0  0  0  0  0
    6.3301   -1.0000    0.0000 C   0  0  0  0  0  0  0  0  0  0  0  0
    7.1962   -1.5000    0.0000 C   0  0  0  0  0  0  0  0  0  0  0  0
    8.9282   -1.5000    0.0000 C   0  0  0  0  0  0  0  0  0  0  0  0
    7.1962   -2.5000    0.0000 C   0  0  0  0  0  0  0  0  0  0  0  0
    8.9282   -2.5000    0.0000 C   0  0  0  0  0  0  0  0  0  0  0  0
    8.0622   -3.0000    0.0000 C   0  0  0  0  0  0  0  0  0  0  0  0
    8.9282    0.8800    0.0000 H   0  0  0  0  0  0  0  0  0  0  0  0
   11.1972    2.1900    0.0000 H   0  0  0  0  0  0  0  0  0  0  0  0
    8.7162    3.0826    0.0000 H   0  0  0  0  0  0  0  0  0  0  0  0
    8.3176    2.3923    0.0000 H   0  0  0  0  0  0  0  0  0  0  0  0
    9.3957    0.5251    0.0000 H   0  0  0  0  0  0  0  0  0  0  0  0
   10.1928    0.5251    0.0000 H   0  0  0  0  0  0  0  0  0  0  0  0
   10.1928    3.4750    0.0000 H   0  0  0  0  0  0  0  0  0  0  0  0
    9.3957    3.4750    0.0000 H   0  0  0  0  0  0  0  0  0  0  0  0
   10.8723    0.9174    0.0000 H   0  0  0  0  0  0  0  0  0  0  0  0
   11.2708    1.6077    0.0000 H   0  0  0  0  0  0  0  0  0  0  0  0
    2.8660    0.6200    0.0000 H   0  0  0  0  0  0  0  0  0  0  0  0
    4.5981   -1.6200    0.0000 H   0  0  0  0  0  0  0  0  0  0  0  0
    2.2554   -0.8923    0.0000 H   0  0  0  0  0  0  0  0  0  0  0  0
    2.6540   -1.5826    0.0000 H   0  0  0  0  0  0  0  0  0  0  0  0
    4.1306    0.9749    0.0000 H   0  0  0  0  0  0  0  0  0  0  0  0
    3.3335    0.9749    0.0000 H   0  0  0  0  0  0  0  0  0  0  0  0
    3.3335   -1.9750    0.0000 H   0  0  0  0  0  0  0  0  0  0  0  0
    4.1306   -1.9750    0.0000 H   0  0  0  0  0  0  0  0  0  0  0  0
    5.2087   -0.1077    0.0000 H   0  0  0  0  0  0  0  0  0  0  0  0
    4.8101    0.5826    0.0000 H   0  0  0  0  0  0  0  0  0  0  0  0
    7.5252    1.3100    0.0000 H   0  0  0  0  0  0  0  0  0  0  0  0
   11.8363    2.4631    0.0000 H   0  0  0  0  0  0  0  0  0  0  0  0
   12.0632    3.3100    0.0000 H   0  0  0  0  0  0  0  0  0  0  0  0
   11.2163    3.5369    0.0000 H   0  0  0  0  0  0  0  0  0  0  0  0
    2.3100    1.0369    0.0000 H   0  0  0  0  0  0  0  0  0  0  0  0
    1.4631    0.8100    0.0000 H   0  0  0  0  0  0  0  0  0  0  0  0
    1.6900   -0.0369    0.0000 H   0  0  0  0  0  0  0  0  0  0  0  0
    5.4641   -2.1200    0.0000 H   0  0  0  0  0  0  0  0  0  0  0  0
    9.4651   -1.1900    0.0000 H   0  0  0  0  0  0  0  0  0  0  0  0
    6.6592   -2.8100    0.0000 H   0  0  0  0  0  0  0  0  0  0  0  0
    9.4651   -2.8100    0.0000 H   0  0  0  0  0  0  0  0  0  0  0  0
    8.0622   -3.6200    0.0000 H   0  0  0  0  0  0  0  0  0  0  0  0
  1  2  2  0  0  0  0 
  1  3  2  0  0  0  0 
  1  5  1  0  0  0  0 
  1 21  1  0  0  0  0 
  4 22  2  0  0  0  0 
  5  7  1  0  0  0  0 
  5 48  1  0  0  0  0 
  6 14  1  0  0  0  0 
  6 22  1  0  0  0  0 
  6 55  1  0  0  0  0 
  7  9  1  0  0  0  0 
  7 10  1  0  0  0  0 
  7 28  1  0  0  0  0 
  8 11  1  0  0  0  0 
  8 12  1  0  0  0  0 
  8 19  1  0  0  0  0 
  8 29  1  0  0  0  0 
  9 11  1  0  0  0  0 
  9 32  1  0  0  0  0 
  9 33  1  0  0  0  0 
 10 12  1  0  0  0  0 
 10 30  1  0  0  0  0 
 10 31  1  0  0  0  0 
 11 36  1  0  0  0  0 
 11 37  1  0  0  0  0 
 12 34  1  0  0  0  0 
 12 35  1  0  0  0  0 
 13 15  1  0  0  0  0 
 13 16  1  0  0  0  0 
 13 20  1  0  0  0  0 
 13 38  1  0  0  0  0 
 14 17  1  0  0  0  0 
 14 18  1  0  0  0  0 
 14 39  1  0  0  0  0 
 15 18  1  0  0  0  0 
 15 40  1  0  0  0  0 
 15 41  1  0  0  0  0 
 16 17  1  0  0  0  0 
 16 42  1  0  0  0  0 
 16 43  1  0  0  0  0 
 17 46  1  0  0  0  0 
 17 47  1  0  0  0  0 
 18 44  1  0  0  0  0 
 18 45  1  0  0  0  0 
 19 49  1  0  0  0  0 
 19 50  1  0  0  0  0 
 19 51  1  0  0  0  0 
 20 52  1  0  0  0  0 
 20 53  1  0  0  0  0 
 20 54  1  0  0  0  0 
 21 23  1  0  0  0  0 
 21 24  2  0  0  0  0 
 22 23  1  0  0  0  0 
 23 25  2  0  0  0  0 
 24 26  1  0  0  0  0 
 24 56  1  0  0  0  0 
 25 27  1  0  0  0  0 
 25 57  1  0  0  0  0 
 26 27  2  0  0  0  0 
 26 58  1  0  0  0  0 
 27 59  1  0  0  0  0 
M  END
> <cdk:Title>
9930426

> <cdk:Remark>
null

> <PUBCHEM_COMPOUND_CID>
9930426

> <PUBCHEM_COMPOUND_CANONICALIZED>
1

> <PUBCHEM_CACTVS_COMPLEXITY>
585

> <PUBCHEM_CACTVS_HBOND_ACCEPTOR>
4

> <PUBCHEM_CACTVS_HBOND_DONOR>
2

> <PUBCHEM_CACTVS_ROTATABLE_BOND>
5

> <PUBCHEM_CACTVS_SUBSKEYS>
AAADcfB7MABAAAAAAAAAAAAAAAAAAAAAAAAwYMAAAAAAAAABAAAAHgQQQAAADSjB2AQyAYLAAAKIAiFSEHDCABAkAAAIiJkIBMgIIDKAlRGEIQhglgCIiYcYiACOAAAAAAAEAAAQAAAAAAgAAAAAAAAAAA==

> <PUBCHEM_IUPAC_OPENEYE_NAME>
N-(4-methylcyclohexyl)-2-[(4-methylcyclohexyl)sulfamoyl]benzamide

> <PUBCHEM_IUPAC_CAS_NAME>
N-(4-methylcyclohexyl)-2-[(4-methylcyclohexyl)sulfamoyl]benzamide

> <PUBCHEM_IUPAC_NAME>
N-(4-methylcyclohexyl)-2-[(4-methylcyclohexyl)sulfamoyl]benzamide

> <PUBCHEM_IUPAC_SYSTEMATIC_NAME>
N-(4-methylcyclohexyl)-2-[(4-methylcyclohexyl)sulfamoyl]benzamide

> <PUBCHEM_IUPAC_TRADITIONAL_NAME>
N-(4-methylcyclohexyl)-2-[(4-methylcyclohexyl)sulfamoyl]benzamide

> <PUBCHEM_IUPAC_INCHI>
InChI=1S/C21H32N2O3S/c1-15-7-11-17(12-8-15)22-21(24)19-5-3-4-6-20(19)27(25,26)23-18-13-9-16(2)10-14-18/h3-6,15-18,23H,7-14H2,1-2H3,(H,22,24)

> <PUBCHEM_IUPAC_INCHIKEY>
VDYZXJWPHCQPTH-UHFFFAOYSA-N

> <PUBCHEM_XLOGP3_AA>
4.3

> <PUBCHEM_EXACT_MASS>
392.213364

> <PUBCHEM_MOLECULAR_FORMULA>
C21H32N2O3S

> <PUBCHEM_MOLECULAR_WEIGHT>
392.55538

> <PUBCHEM_OPENEYE_CAN_SMILES>
CC1CCC(CC1)NC(=O)C2=CC=CC=C2S(=O)(=O)NC3CCC(CC3)C

> <PUBCHEM_OPENEYE_ISO_SMILES>
CC1CCC(CC1)NC(=O)C2=CC=CC=C2S(=O)(=O)NC3CCC(CC3)C

> <PUBCHEM_CACTVS_TPSA>
83.6

> <PUBCHEM_MONOISOTOPIC_WEIGHT>
392.213364

> <PUBCHEM_TOTAL_CHARGE>
0

> <PUBCHEM_HEAVY_ATOM_COUNT>
27

> <PUBCHEM_ATOM_DEF_STEREO_COUNT>
0

> <PUBCHEM_ATOM_UDEF_STEREO_COUNT>
0

> <PUBCHEM_BOND_DEF_STEREO_COUNT>
0

> <PUBCHEM_BOND_UDEF_STEREO_COUNT>
0

> <PUBCHEM_ISOTOPIC_ATOM_COUNT>
0

> <PUBCHEM_COMPONENT_COUNT>
1

> <PUBCHEM_CACTVS_TAUTO_COUNT>
2

> <PUBCHEM_COORDINATE_TYPE>
1

> <PUBCHEM_BONDANNOTATIONS>
21  23  8

$$$$
