
  CDK     0202151410

 12 12  0  0  0  0  0  0  0  0999 V2000
    6.0010    0.7673    0.0000 S   0  0  0  0  0  0  0  0  0  0  0  0
    5.5010   -0.0987    0.0000 O   0  0  0  0  0  0  0  0  0  0  0  0
    6.5010    1.6333    0.0000 O   0  0  0  0  0  0  0  0  0  0  0  0
    5.1350    1.2673    0.0000 N   0  0  0  0  0  0  0  0  0  0  0  0
    9.4931    0.8020    0.0000 C   0  0  0  0  0  0  0  0  0  0  0  0
    8.5991    0.2673    0.0000 C   0  0  0  0  0  0  0  0  0  0  0  0
    8.5991   -0.7327    0.0000 C   0  0  0  0  0  0  0  0  0  0  0  0
    6.8671    0.2673    0.0000 C   0  0  0  0  0  0  0  0  0  0  0  0
    7.7331    0.7673    0.0000 C   0  0  0  0  0  0  0  0  0  0  0  0
    4.2690    0.7673    0.0000 C   0  0  0  0  0  0  0  0  0  0  0  0
    7.7331   -1.2327    0.0000 C   0  0  0  0  0  0  0  0  0  0  0  0
    6.8671   -0.7327    0.0000 C   0  0  0  0  0  0  0  0  0  0  0  0
  1  2  1  0  0  0  0 
  1  3  1  0  0  0  0 
  1  4  1  0  0  0  0 
  1  8  1  0  0  0  0 
  4 10  1  0  0  0  0 
  5  6  1  0  0  0  0 
  6  7  1  0  0  0  0 
  6  9  1  0  0  0  0 
  7 11  1  0  0  0  0 
  8  9  1  0  0  0  0 
  8 12  1  0  0  0  0 
 11 12  1  0  0  0  0 
M  END
> <PUBCHEM_COMPOUND_CID>
64003633

$$$$
