
  CDK     0202151410

 19 19  0  0  0  0  0  0  0  0999 V2000
    3.7320    1.0000    0.0000 O   0  0  0  0  0  0  0  0  0  0  0  0
    3.7320    0.0000    0.0000 O   0  0  0  0  0  0  0  0  0  0  0  0
    8.0622   -0.5000    0.0000 O   0  0  0  0  0  0  0  0  0  0  0  0
    4.5981    2.5000    0.0000 O   0  0  0  0  0  0  0  0  0  0  0  0
    4.5981   -1.5000    0.0000 O   0  0  0  0  0  0  0  0  0  0  0  0
    6.3301   -0.5000    0.0000 N   0  0  0  0  0  0  0  0  0  0  0  0
    7.1962    1.0000    0.0000 N   0  0  0  0  0  0  0  0  0  0  0  0
    6.3301    1.5000    0.0000 C   0  0  1  0  0  0  0  0  0  0  0  0
    5.4641    1.0000    0.0000 C   0  0  0  0  0  0  0  0  0  0  0  0
    5.4641    0.0000    0.0000 C   0  0  0  0  0  0  0  0  0  0  0  0
    6.3301    2.5000    0.0000 C   0  0  0  0  0  0  0  0  0  0  0  0
    7.1962    0.0000    0.0000 C   0  0  0  0  0  0  0  0  0  0  0  0
    6.3301   -1.5000    0.0000 C   0  0  0  0  0  0  0  0  0  0  0  0
    4.5981    1.5000    0.0000 C   0  0  0  0  0  0  0  0  0  0  0  0
    5.4641    3.0000    0.0000 C   0  0  0  0  0  0  0  0  0  0  0  0
    7.1962    3.0000    0.0000 C   0  0  0  0  0  0  0  0  0  0  0  0
    4.5981   -0.5000    0.0000 C   0  0  0  0  0  0  0  0  0  0  0  0
    5.4641   -2.0000    0.0000 C   0  0  0  0  0  0  0  0  0  0  0  0
    7.1962   -2.0000    0.0000 C   0  0  0  0  0  0  0  0  0  0  0  0
  1 14  1  0  0  0  0 
  2 17  1  0  0  0  0 
  3 12  1  0  0  0  0 
  4 14  1  0  0  0  0 
  5 17  1  0  0  0  0 
  6 10  1  0  0  0  0 
  6 12  1  0  0  0  0 
  6 13  1  0  0  0  0 
  7  8  1  0  0  0  0 
  7 12  1  0  0  0  0 
  8  9  1  0  0  0  0 
  8 11  1  1  0  0  0 
  9 10  1  0  0  0  0 
  9 14  1  0  0  0  0 
 10 17  1  0  0  0  0 
 11 15  1  0  0  0  0 
 11 16  1  0  0  0  0 
 13 18  1  0  0  0  0 
 13 19  1  0  0  0  0 
M  END
> <PUBCHEM_COMPOUND_CID>
40175032

$$$$

  CDK     0202151410

 18 18  0  0  0  0  0  0  0  0999 V2000
    8.9282   -0.4050    0.0000 S   0  0  0  0  0  0  0  0  0  0  0  0
   10.6603    0.5950    0.0000 O   0  0  0  0  0  0  0  0  0  0  0  0
   11.5263   -0.9050    0.0000 N   0  0  0  0  0  0  0  0  0  0  0  0
    6.3301   -0.9050    0.0000 N   0  0  0  0  0  0  0  0  0  0  0  0
    7.1962    0.5950    0.0000 N   0  0  0  0  0  0  0  0  0  0  0  0
    4.5981   -0.9050    0.0000 N   0  0  0  0  0  0  0  0  0  0  0  0
    5.4641    0.5950    0.0000 N   0  0  0  0  0  0  0  0  0  0  0  0
    9.7942   -0.9050    0.0000 C   0  0  3  0  0  0  0  0  0  0  0  0
    8.0622   -0.9050    0.0000 C   0  0  3  0  0  0  0  0  0  0  0  0
   10.6603   -0.4050    0.0000 C   0  0  0  0  0  0  0  0  0  0  0  0
    9.7942   -1.9050    0.0000 C   0  0  0  0  0  0  0  0  0  0  0  0
    7.1962   -0.4050    0.0000 C   0  0  0  0  0  0  0  0  0  0  0  0
    8.0622   -1.9050    0.0000 C   0  0  0  0  0  0  0  0  0  0  0  0
   12.3923   -0.4050    0.0000 C   0  0  0  0  0  0  0  0  0  0  0  0
   13.2583   -0.9050    0.0000 C   0  0  0  0  0  0  0  0  0  0  0  0
    5.4641   -0.4050    0.0000 C   0  0  0  0  0  0  0  0  0  0  0  0
    6.3301    1.0950    0.0000 C   0  0  0  0  0  0  0  0  0  0  0  0
    3.7320   -0.4050    0.0000 C   0  0  0  0  0  0  0  0  0  0  0  0
  1  8  1  0  0  0  0 
  1  9  1  0  0  0  0 
  2 10  1  0  0  0  0 
  3 10  1  0  0  0  0 
  3 14  1  0  0  0  0 
  4 12  1  0  0  0  0 
  4 16  1  0  0  0  0 
  5 12  1  0  0  0  0 
  5 17  1  0  0  0  0 
  6 16  1  0  0  0  0 
  6 18  1  0  0  0  0 
  7 16  1  0  0  0  0 
  7 17  1  0  0  0  0 
  8 10  1  0  0  0  0 
  8 11  1  0  0  0  0 
  9 12  1  0  0  0  0 
  9 13  1  0  0  0  0 
 14 15  1  0  0  0  0 
M  END
> <PUBCHEM_COMPOUND_CID>
16576575

$$$$

  CDK     0202151410

 18 18  0  0  0  0  0  0  0  0999 V2000
    5.4641    0.0194    0.0000 O   0  0  0  0  0  0  0  0  0  0  0  0
    7.1962    0.0194    0.0000 N   0  0  0  0  0  0  0  0  0  0  0  0
    5.4641   -2.9806    0.0000 N   0  0  0  0  0  0  0  0  0  0  0  0
    7.1962    1.0194    0.0000 C   0  0  3  0  0  0  0  0  0  0  0  0
    8.0622    1.5194    0.0000 C   0  0  0  0  0  0  0  0  0  0  0  0
    8.9282    1.0194    0.0000 C   0  0  0  0  0  0  0  0  0  0  0  0
    8.0622   -0.4806    0.0000 C   0  0  0  0  0  0  0  0  0  0  0  0
    8.9282    0.0194    0.0000 C   0  0  0  0  0  0  0  0  0  0  0  0
    6.3301    1.5194    0.0000 C   0  0  0  0  0  0  0  0  0  0  0  0
    6.3301    2.5194    0.0000 C   0  0  0  0  0  0  0  0  0  0  0  0
    6.3301   -0.4806    0.0000 C   0  0  0  0  0  0  0  0  0  0  0  0
    6.3301   -1.4806    0.0000 C   0  0  0  0  0  0  0  0  0  0  0  0
    5.4641    3.0194    0.0000 C   0  0  0  0  0  0  0  0  0  0  0  0
    5.4641   -1.9806    0.0000 C   0  0  0  0  0  0  0  0  0  0  0  0
    5.4641    4.0194    0.0000 C   0  0  0  0  0  0  0  0  0  0  0  0
    4.5981    2.5194    0.0000 C   0  0  0  0  0  0  0  0  0  0  0  0
    4.5981    4.5194    0.0000 C   0  0  0  0  0  0  0  0  0  0  0  0
    4.5981   -3.4806    0.0000 C   0  0  0  0  0  0  0  0  0  0  0  0
  1 11  1  0  0  0  0 
  2  4  1  0  0  0  0 
  2  7  1  0  0  0  0 
  2 11  1  0  0  0  0 
  3 14  1  0  0  0  0 
  3 18  1  0  0  0  0 
  4  5  1  0  0  0  0 
  4  9  1  0  0  0  0 
  5  6  1  0  0  0  0 
  6  8  1  0  0  0  0 
  7  8  1  0  0  0  0 
  9 10  1  0  0  0  0 
 10 13  1  0  0  0  0 
 11 12  1  0  0  0  0 
 12 14  1  0  0  0  0 
 13 15  1  0  0  0  0 
 13 16  1  0  0  0  0 
 15 17  1  0  0  0  0 
M  END
> <PUBCHEM_COMPOUND_CID>
56370184

$$$$
