
  CDK     1223141344

 11 12  0  0  0  0  0  0  0  0999 V2000
    6.3395    0.3981    0.0000 N   0  0  0  0  0  0  0  0  0  0  0  0
    7.9575    0.3981    0.0000 N   0  0  0  0  0  0  0  0  0  0  0  0
    7.6485    1.3491    0.0000 N   0  0  0  0  0  0  0  0  0  0  0  0
    7.1485   -0.1897    0.0000 C   0  0  0  0  0  0  0  0  0  0  0  0
    6.6485    1.3491    0.0000 C   0  0  0  0  0  0  0  0  0  0  0  0
    7.1485   -1.1897    0.0000 C   0  0  0  0  0  0  0  0  0  0  0  0
    6.2824   -1.6897    0.0000 C   0  0  0  0  0  0  0  0  0  0  0  0
    8.0145   -1.6897    0.0000 C   0  0  0  0  0  0  0  0  0  0  0  0
    6.2824   -2.6897    0.0000 C   0  0  0  0  0  0  0  0  0  0  0  0
    8.0145   -2.6897    0.0000 C   0  0  0  0  0  0  0  0  0  0  0  0
    7.1485   -3.1897    0.0000 C   0  0  0  0  0  0  0  0  0  0  0  0
  1  4  1  0  0  0  0 
  1  5  1  0  0  0  0 
  2  3  1  0  0  0  0 
  2  4  1  0  0  0  0 
  3  5  1  0  0  0  0 
  4  6  1  0  0  0  0 
  6  7  1  0  0  0  0 
  6  8  1  0  0  0  0 
  7  9  1  0  0  0  0 
  8 10  1  0  0  0  0 
  9 11  1  0  0  0  0 
 10 11  1  0  0  0  0 
M  END
> <PUBCHEM_COMPOUND_CID>
51215349

$$$$

  CDK     1223141344

 11 12  0  0  0  0  0  0  0  0999 V2000
    5.8301    2.0186    0.0000 N   0  0  0  0  0  0  0  0  0  0  0  0
    7.1962   -2.0202    0.0000 N   0  0  0  0  0  0  0  0  0  0  0  0
    5.4641   -1.0202    0.0000 C   0  0  0  0  0  0  0  0  0  0  0  0
    6.3301   -0.5202    0.0000 C   0  0  0  0  0  0  0  0  0  0  0  0
    6.3301    0.4798    0.0000 C   0  0  0  0  0  0  0  0  0  0  0  0
    5.4641   -2.0202    0.0000 C   0  0  0  0  0  0  0  0  0  0  0  0
    7.1962   -1.0202    0.0000 C   0  0  0  0  0  0  0  0  0  0  0  0
    5.5211    1.0676    0.0000 C   0  0  0  0  0  0  0  0  0  0  0  0
    7.1391    1.0676    0.0000 C   0  0  0  0  0  0  0  0  0  0  0  0
    6.3301   -2.5202    0.0000 C   0  0  0  0  0  0  0  0  0  0  0  0
    6.8301    2.0186    0.0000 C   0  0  0  0  0  0  0  0  0  0  0  0
  1  8  1  0  0  0  0 
  1 11  1  0  0  0  0 
  2  7  1  0  0  0  0 
  2 10  1  0  0  0  0 
  3  4  1  0  0  0  0 
  3  6  1  0  0  0  0 
  4  5  1  0  0  0  0 
  4  7  1  0  0  0  0 
  5  8  1  0  0  0  0 
  5  9  1  0  0  0  0 
  6 10  1  0  0  0  0 
  9 11  1  0  0  0  0 
M  END
> <PUBCHEM_COMPOUND_CID>
70037035

$$$$

  CDK     1223141344

 11 12  0  0  0  0  0  0  0  0999 V2000
    4.5981    1.1920    0.0000 N   0  0  3  0  0  0  0  0  0  0  0  0
    4.5981   -1.8080    0.0000 N   0  0  0  0  0  0  0  0  0  0  0  0
    5.4071    1.7798    0.0000 C   0  0  3  0  0  0  0  0  0  0  0  0
    5.0981    2.7308    0.0000 C   0  0  0  0  0  0  0  0  0  0  0  0
    4.0981    2.7308    0.0000 C   0  0  0  0  0  0  0  0  0  0  0  0
    3.7891    1.7798    0.0000 C   0  0  0  0  0  0  0  0  0  0  0  0
    4.5981    0.1920    0.0000 C   0  0  0  0  0  0  0  0  0  0  0  0
    3.7320   -0.3080    0.0000 C   0  0  0  0  0  0  0  0  0  0  0  0
    5.4641   -0.3080    0.0000 C   0  0  0  0  0  0  0  0  0  0  0  0
    3.7320   -1.3080    0.0000 C   0  0  0  0  0  0  0  0  0  0  0  0
    5.4641   -1.3080    0.0000 C   0  0  0  0  0  0  0  0  0  0  0  0
  1  3  1  0  0  0  0 
  1  6  1  0  0  0  0 
  1  7  1  0  0  0  0 
  2 10  1  0  0  0  0 
  2 11  1  0  0  0  0 
  3  4  1  0  0  0  0 
  4  5  1  0  0  0  0 
  5  6  1  0  0  0  0 
  7  8  1  0  0  0  0 
  7  9  1  0  0  0  0 
  8 10  1  0  0  0  0 
  9 11  1  0  0  0  0 
M  END
> <PUBCHEM_COMPOUND_CID>
61371689

$$$$

  CDK     1223141344

 11 12  0  0  0  0  0  0  0  0999 V2000
    3.2320    1.4081    0.0000 N   0  0  0  0  0  0  0  0  0  0  0  0
    3.7320   -0.1307    0.0000 C   0  0  0  0  0  0  0  0  0  0  0  0
    3.7320   -1.1307    0.0000 C   0  0  0  0  0  0  0  0  0  0  0  0
    4.5411    0.4571    0.0000 C   0  0  0  0  0  0  0  0  0  0  0  0
    4.2320    1.4081    0.0000 C   0  0  0  0  0  0  0  0  0  0  0  0
    2.9230    0.4571    0.0000 C   0  0  0  0  0  0  0  0  0  0  0  0
    4.5981   -1.6307    0.0000 C   0  0  0  0  0  0  0  0  0  0  0  0
    2.8660   -1.6307    0.0000 C   0  0  0  0  0  0  0  0  0  0  0  0
    4.5981   -2.6307    0.0000 C   0  0  0  0  0  0  0  0  0  0  0  0
    2.8660   -2.6307    0.0000 C   0  0  0  0  0  0  0  0  0  0  0  0
    3.7320   -3.1307    0.0000 C   0  0  0  0  0  0  0  0  0  0  0  0
  1  5  1  0  0  0  0 
  1  6  1  0  0  0  0 
  2  3  1  0  0  0  0 
  2  4  1  0  0  0  0 
  2  6  1  0  0  0  0 
  3  7  1  0  0  0  0 
  3  8  1  0  0  0  0 
  4  5  1  0  0  0  0 
  7  9  1  0  0  0  0 
  8 10  1  0  0  0  0 
  9 11  1  0  0  0  0 
 10 11  1  0  0  0  0 
M  ISO  1   1  32
M  END
> <PUBCHEM_COMPOUND_CID>
70413264

$$$$

  CDK     1223141344

 11 12  0  0  0  0  0  0  0  0999 V2000
    6.3301    1.6636    0.0000 N   0  0  0  0  0  0  0  0  0  0  0  0
    6.8301    3.2024    0.0000 C   0  0  0  0  0  0  0  0  0  0  0  0
    5.8301    3.2024    0.0000 C   0  0  0  0  0  0  0  0  0  0  0  0
    7.1391    2.2514    0.0000 C   0  0  0  0  0  0  0  0  0  0  0  0
    5.5211    2.2514    0.0000 C   0  0  0  0  0  0  0  0  0  0  0  0
    6.3301    0.6636    0.0000 C   0  0  0  0  0  0  0  0  0  0  0  0
    5.4641    0.1636    0.0000 C   0  0  0  0  0  0  0  0  0  0  0  0
    7.1962    0.1636    0.0000 C   0  0  0  0  0  0  0  0  0  0  0  0
    5.4641   -0.8364    0.0000 C   0  0  0  0  0  0  0  0  0  0  0  0
    7.1962   -0.8364    0.0000 C   0  0  0  0  0  0  0  0  0  0  0  0
    6.3301   -1.3364    0.0000 C   0  0  0  0  0  0  0  0  0  0  0  0
  1  4  1  0  0  0  0 
  1  5  1  0  0  0  0 
  1  6  1  0  0  0  0 
  2  3  1  0  0  0  0 
  2  4  1  0  0  0  0 
  3  5  1  0  0  0  0 
  6  7  1  0  0  0  0 
  6  8  1  0  0  0  0 
  7  9  1  0  0  0  0 
  8 10  1  0  0  0  0 
  9 11  1  0  0  0  0 
 10 11  1  0  0  0  0 
M  END
> <PUBCHEM_COMPOUND_CID>
13632598

$$$$
