
  CDK     1223141344

 15 17  0  0  0  0  0  0  0  0999 V2000
    4.6783   -0.8163    0.0000 N   0  0  0  0  0  0  0  0  0  0  0  0
    5.2619   -0.0116    0.0000 N   0  0  0  0  0  0  0  0  0  0  0  0
    8.2619   -0.0116    0.0000 C   0  0  0  0  0  0  0  0  0  0  0  0
    6.2619   -0.0116    0.0000 C   0  0  0  0  0  0  0  0  0  0  0  0
    7.7619    0.8544    0.0000 C   0  0  0  0  0  0  0  0  0  0  0  0
    7.7619   -0.8776    0.0000 C   0  0  0  0  0  0  0  0  0  0  0  0
    6.7619    0.8544    0.0000 C   0  0  0  0  0  0  0  0  0  0  0  0
    6.7619   -0.8776    0.0000 C   0  0  0  0  0  0  0  0  0  0  0  0
    3.7320    0.4884    0.0000 C   0  0  0  0  0  0  0  0  0  0  0  0
    4.6783    0.7931    0.0000 C   0  0  0  0  0  0  0  0  0  0  0  0
    3.7320   -0.5116    0.0000 C   0  0  0  0  0  0  0  0  0  0  0  0
    2.8660    0.9884    0.0000 C   0  0  0  0  0  0  0  0  0  0  0  0
    2.8660   -1.0116    0.0000 C   0  0  0  0  0  0  0  0  0  0  0  0
    2.0000    0.4884    0.0000 C   0  0  0  0  0  0  0  0  0  0  0  0
    2.0000   -0.5116    0.0000 C   0  0  0  0  0  0  0  0  0  0  0  0
  1  2  1  0  0  0  0 
  1 11  1  0  0  0  0 
  2  4  1  0  0  0  0 
  2 10  1  0  0  0  0 
  3  5  1  0  0  0  0 
  3  6  1  0  0  0  0 
  4  7  1  0  0  0  0 
  4  8  1  0  0  0  0 
  5  7  1  0  0  0  0 
  6  8  1  0  0  0  0 
  9 10  1  0  0  0  0 
  9 11  1  0  0  0  0 
  9 12  1  0  0  0  0 
 11 13  1  0  0  0  0 
 12 14  1  0  0  0  0 
 13 15  1  0  0  0  0 
 14 15  1  0  0  0  0 
M  ISO  1   1  80
M  END
> <PUBCHEM_COMPOUND_CID>
53428689

$$$$
