
  CDK     1223141344

 17 20  0  0  0  0  0  0  0  0999 V2000
    7.3931    0.3257    0.0000 C   0  0  2  0  0  0  0  0  0  0  0  0
    7.3931    1.3257    0.0000 C   0  0  2  0  0  0  0  0  0  0  0  0
    6.5271   -0.1743    0.0000 C   0  0  1  0  0  0  0  0  0  0  0  0
    5.6610    0.3257    0.0000 C   0  0  2  0  0  0  0  0  0  0  0  0
    6.5271    1.8257    0.0000 C   0  0  0  0  0  0  0  0  0  0  0  0
    5.6610    1.3257    0.0000 C   0  0  0  0  0  0  0  0  0  0  0  0
    8.3393    0.0210    0.0000 C   0  0  0  0  0  0  0  0  0  0  0  0
    8.3393    1.6304    0.0000 C   0  0  0  0  0  0  0  0  0  0  0  0
    4.7510   -0.1811    0.0000 C   0  0  2  0  0  0  0  0  0  0  0  0
    6.5431   -1.2158    0.0000 C   0  0  2  0  0  0  0  0  0  0  0  0
    8.9229    0.8257    0.0000 C   0  0  0  0  0  0  0  0  0  0  0  0
    5.6451   -1.7436    0.0000 C   0  0  0  0  0  0  0  0  0  0  0  0
    4.7430   -1.2227    0.0000 C   0  0  0  0  0  0  0  0  0  0  0  0
    3.8242    0.3829    0.0000 C   0  0  0  0  0  0  0  0  0  0  0  0
    2.8763   -0.1450    0.0000 C   0  0  0  0  0  0  0  0  0  0  0  0
    3.8076   -1.7725    0.0000 C   0  0  0  0  0  0  0  0  0  0  0  0
    2.8680   -1.2300    0.0000 C   0  0  0  0  0  0  0  0  0  0  0  0
  1  2  1  0  0  0  0 
  1  3  1  0  0  0  0 
  1  7  1  0  0  0  0 
  2  5  1  0  0  0  0 
  2  8  1  0  0  0  0 
  3  4  1  0  0  0  0 
  3 10  1  0  0  0  0 
  4  6  1  0  0  0  0 
  4  9  1  0  0  0  0 
  5  6  1  0  0  0  0 
  7 11  1  0  0  0  0 
  8 11  1  0  0  0  0 
  9 13  1  0  0  0  0 
  9 14  1  0  0  0  0 
 10 12  1  0  0  0  0 
 12 13  1  0  0  0  0 
 13 16  1  0  0  0  0 
 14 15  1  0  0  0  0 
 15 17  1  0  0  0  0 
 16 17  1  0  0  0  0 
M  END
> <PUBCHEM_COMPOUND_CID>
57147570

$$$$

  CDK     1223141344

 17 20  0  0  0  0  0  0  0  0999 V2000
    6.7354   -2.6980    0.0000 N   0  0  0  0  0  0  0  0  0  0  0  0
    3.3803    1.8856    0.0000 C   0  0  2  0  0  0  0  0  0  0  0  0
    3.6727    0.9292    0.0000 C   0  0  1  0  0  0  0  0  0  0  0  0
    4.0822    2.8933    0.0000 C   0  0  0  0  0  0  0  0  0  0  0  0
    2.0000    1.3282    0.0000 C   0  0  0  0  0  0  0  0  0  0  0  0
    2.2924    0.3719    0.0000 C   0  0  0  0  0  0  0  0  0  0  0  0
    5.4232    1.6456    0.0000 C   0  0  0  0  0  0  0  0  0  0  0  0
    4.9232    0.1067    0.0000 C   0  0  0  0  0  0  0  0  0  0  0  0
    5.7322    0.6945    0.0000 C   0  0  0  0  0  0  0  0  0  0  0  0
    4.9232   -0.8933    0.0000 C   0  0  0  0  0  0  0  0  0  0  0  0
    5.7892   -1.3933    0.0000 C   0  0  0  0  0  0  0  0  0  0  0  0
    4.0572   -1.3933    0.0000 C   0  0  0  0  0  0  0  0  0  0  0  0
    5.7892   -2.3933    0.0000 C   0  0  0  0  0  0  0  0  0  0  0  0
    6.7354   -1.0885    0.0000 C   0  0  0  0  0  0  0  0  0  0  0  0
    4.0572   -2.3933    0.0000 C   0  0  0  0  0  0  0  0  0  0  0  0
    4.9232   -2.8933    0.0000 C   0  0  0  0  0  0  0  0  0  0  0  0
    7.3190   -1.8933    0.0000 C   0  0  0  0  0  0  0  0  0  0  0  0
  1 13  1  0  0  0  0 
  1 17  1  0  0  0  0 
  2  4  1  0  0  0  0 
  2  5  1  0  0  0  0 
  2  7  1  0  0  0  0 
  3  4  1  0  0  0  0 
  3  6  1  0  0  0  0 
  3  8  1  0  0  0  0 
  5  6  1  0  0  0  0 
  7  9  1  0  0  0  0 
  8  9  1  0  0  0  0 
  8 10  1  0  0  0  0 
 10 11  1  0  0  0  0 
 10 12  1  0  0  0  0 
 11 13  1  0  0  0  0 
 11 14  1  0  0  0  0 
 12 15  1  0  0  0  0 
 13 16  1  0  0  0  0 
 14 17  1  0  0  0  0 
 15 16  1  0  0  0  0 
M  ISO  1   1  32
M  END
> <PUBCHEM_COMPOUND_CID>
69874902

$$$$
