
  CDK     1223141344

 22 24  0  0  0  0  0  0  0  0999 V2000
   10.7263   -0.2604    0.0000 N   0  0  0  0  0  0  0  0  0  0  0  0
    6.3981    0.2563    0.0000 N   0  0  0  0  0  0  0  0  0  0  0  0
    5.4920    1.8118    0.0000 N   0  0  0  0  0  0  0  0  0  0  0  0
   11.5942    0.2362    0.0000 C   0  0  3  0  0  0  0  0  0  0  0  0
   12.4583   -0.2671    0.0000 C   0  0  0  0  0  0  0  0  0  0  0  0
   12.4544   -1.2671    0.0000 C   0  0  0  0  0  0  0  0  0  0  0  0
   13.3262    0.2296    0.0000 C   0  0  0  0  0  0  0  0  0  0  0  0
    8.9942   -0.2537    0.0000 C   0  0  0  0  0  0  0  0  0  0  0  0
   14.1865   -1.2738    0.0000 C   0  0  0  0  0  0  0  0  0  0  0  0
    9.8622    0.2429    0.0000 C   0  0  0  0  0  0  0  0  0  0  0  0
    8.1301    0.2496    0.0000 C   0  0  0  0  0  0  0  0  0  0  0  0
   13.3185   -1.7704    0.0000 C   0  0  0  0  0  0  0  0  0  0  0  0
   14.1903   -0.2738    0.0000 C   0  0  0  0  0  0  0  0  0  0  0  0
    7.2622   -0.2471    0.0000 C   0  0  0  0  0  0  0  0  0  0  0  0
    5.4920   -0.2576    0.0000 C   0  0  0  0  0  0  0  0  0  0  0  0
    4.5981    0.2771    0.0000 C   0  0  0  0  0  0  0  0  0  0  0  0
    6.3981    1.2979    0.0000 C   0  0  0  0  0  0  0  0  0  0  0  0
    4.5981    1.2771    0.0000 C   0  0  0  0  0  0  0  0  0  0  0  0
    3.7320   -0.2229    0.0000 C   0  0  0  0  0  0  0  0  0  0  0  0
    3.7320    1.7771    0.0000 C   0  0  0  0  0  0  0  0  0  0  0  0
    2.8660    0.2771    0.0000 C   0  0  0  0  0  0  0  0  0  0  0  0
    2.8660    1.2771    0.0000 C   0  0  0  0  0  0  0  0  0  0  0  0
  1  4  1  0  0  0  0 
  1 10  1  0  0  0  0 
  2 14  1  0  0  0  0 
  2 15  1  0  0  0  0 
  2 17  1  0  0  0  0 
  3 17  1  0  0  0  0 
  3 18  1  0  0  0  0 
  4  5  1  0  0  0  0 
  5  6  1  0  0  0  0 
  5  7  1  0  0  0  0 
  6 12  1  0  0  0  0 
  7 13  1  0  0  0  0 
  8 10  1  0  0  0  0 
  8 11  1  0  0  0  0 
  9 12  1  0  0  0  0 
  9 13  1  0  0  0  0 
 11 14  1  0  0  0  0 
 15 16  1  0  0  0  0 
 16 18  1  0  0  0  0 
 16 19  1  0  0  0  0 
 18 20  1  0  0  0  0 
 19 21  1  0  0  0  0 
 20 22  1  0  0  0  0 
 21 22  1  0  0  0  0 
M  END
> <PUBCHEM_COMPOUND_CID>
46420414

$$$$

  CDK     1223141344

 22 24  0  0  0  0  0  0  0  0999 V2000
    9.6448    4.2500    0.0000 N   0  0  0  0  0  0  0  0  0  0  0  0
    5.3147   -1.2500    0.0000 N   0  0  0  0  0  0  0  0  0  0  0  0
    7.9128    3.2500    0.0000 N   0  0  3  0  0  0  0  0  0  0  0  0
    3.5827   -3.2500    0.0000 C   0  0  0  0  0  0  0  0  0  0  0  0
    2.6691   -2.8433    0.0000 C   0  0  0  0  0  0  0  0  0  0  0  0
    3.4782   -4.2445    0.0000 C   0  0  0  0  0  0  0  0  0  0  0  0
    2.5000   -4.4524    0.0000 C   0  0  0  0  0  0  0  0  0  0  0  0
    2.0000   -3.5864    0.0000 C   0  0  0  0  0  0  0  0  0  0  0  0
    4.4487   -2.7500    0.0000 C   0  0  3  0  0  0  0  0  0  0  0  0
    4.4487   -1.7500    0.0000 C   0  0  0  0  0  0  0  0  0  0  0  0
    8.7788    2.7500    0.0000 C   0  0  0  0  0  0  0  0  0  0  0  0
    9.6448    3.2500    0.0000 C   0  0  3  0  0  0  0  0  0  0  0  0
    7.9128    4.2500    0.0000 C   0  0  0  0  0  0  0  0  0  0  0  0
    5.3147   -0.2500    0.0000 C   0  0  0  0  0  0  0  0  0  0  0  0
    7.0468    2.7500    0.0000 C   0  0  0  0  0  0  0  0  0  0  0  0
    8.7788    4.7500    0.0000 C   0  0  0  0  0  0  0  0  0  0  0  0
    7.0468    1.7500    0.0000 C   0  0  0  0  0  0  0  0  0  0  0  0
    6.1808    0.2500    0.0000 C   0  0  0  0  0  0  0  0  0  0  0  0
    6.1808    1.2500    0.0000 C   0  0  0  0  0  0  0  0  0  0  0  0
    7.9128    1.2500    0.0000 C   0  0  0  0  0  0  0  0  0  0  0  0
    7.0468   -0.2500    0.0000 C   0  0  0  0  0  0  0  0  0  0  0  0
    7.9128    0.2500    0.0000 C   0  0  0  0  0  0  0  0  0  0  0  0
  1 12  1  0  0  0  0 
  1 16  1  0  0  0  0 
  2 10  1  0  0  0  0 
  2 14  1  0  0  0  0 
  3 11  1  0  0  0  0 
  3 13  1  0  0  0  0 
  3 15  1  0  0  0  0 
  4  5  1  0  0  0  0 
  4  6  1  0  0  0  0 
  4  9  1  0  0  0  0 
  5  8  1  0  0  0  0 
  6  7  1  0  0  0  0 
  7  8  1  0  0  0  0 
  9 10  1  0  0  0  0 
 11 12  1  0  0  0  0 
 13 16  1  0  0  0  0 
 14 18  1  0  0  0  0 
 15 17  1  0  0  0  0 
 17 19  1  0  0  0  0 
 17 20  1  0  0  0  0 
 18 19  1  0  0  0  0 
 18 21  1  0  0  0  0 
 20 22  1  0  0  0  0 
 21 22  1  0  0  0  0 
M  ISO  1   1  16
M  END
> <PUBCHEM_COMPOUND_CID>
47899785

$$$$

  CDK     1223141344

 22 24  0  0  0  0  0  0  0  0999 V2000
    6.3301    1.4050    0.0000 N   0  0  0  0  0  0  0  0  0  0  0  0
    4.5981   -4.5950    0.0000 N   0  0  0  0  0  0  0  0  0  0  0  0
    4.5981   -2.5950    0.0000 N   0  0  0  0  0  0  0  0  0  0  0  0
    6.3301    2.4050    0.0000 N   0  0  0  0  0  0  0  0  0  0  0  0
    3.7320   -3.0950    0.0000 C   0  0  0  0  0  0  0  0  0  0  0  0
    3.7320   -4.0950    0.0000 C   0  0  3  0  0  0  0  0  0  0  0  0
    5.4641   -3.0950    0.0000 C   0  0  0  0  0  0  0  0  0  0  0  0
    5.4641   -4.0950    0.0000 C   0  0  0  0  0  0  0  0  0  0  0  0
    4.5981   -1.5950    0.0000 C   0  0  0  0  0  0  0  0  0  0  0  0
    5.4641   -1.0950    0.0000 C   0  0  0  0  0  0  0  0  0  0  0  0
    6.3301    0.4050    0.0000 C   0  0  0  0  0  0  0  0  0  0  0  0
    5.4641   -0.0950    0.0000 C   0  0  0  0  0  0  0  0  0  0  0  0
    6.3301   -1.5950    0.0000 C   0  0  0  0  0  0  0  0  0  0  0  0
    7.1962   -0.0950    0.0000 C   0  0  0  0  0  0  0  0  0  0  0  0
    7.1962   -1.0950    0.0000 C   0  0  0  0  0  0  0  0  0  0  0  0
    7.1962    2.9050    0.0000 C   0  0  0  0  0  0  0  0  0  0  0  0
    7.1962    3.9050    0.0000 C   0  0  0  0  0  0  0  0  0  0  0  0
    8.0622    4.4050    0.0000 C   0  0  0  0  0  0  0  0  0  0  0  0
    6.3301    4.4050    0.0000 C   0  0  0  0  0  0  0  0  0  0  0  0
    8.0622    5.4050    0.0000 C   0  0  0  0  0  0  0  0  0  0  0  0
    6.3301    5.4050    0.0000 C   0  0  0  0  0  0  0  0  0  0  0  0
    7.1962    5.9050    0.0000 C   0  0  0  0  0  0  0  0  0  0  0  0
  1  4  1  0  0  0  0 
  1 11  1  0  0  0  0 
  2  6  1  0  0  0  0 
  2  8  1  0  0  0  0 
  3  5  1  0  0  0  0 
  3  7  1  0  0  0  0 
  3  9  1  0  0  0  0 
  4 16  1  0  0  0  0 
  5  6  1  0  0  0  0 
  7  8  1  0  0  0  0 
  9 10  1  0  0  0  0 
 10 12  1  0  0  0  0 
 10 13  1  0  0  0  0 
 11 12  1  0  0  0  0 
 11 14  1  0  0  0  0 
 13 15  1  0  0  0  0 
 14 15  1  0  0  0  0 
 16 17  1  0  0  0  0 
 17 18  1  0  0  0  0 
 17 19  1  0  0  0  0 
 18 20  1  0  0  0  0 
 19 21  1  0  0  0  0 
 20 22  1  0  0  0  0 
 21 22  1  0  0  0  0 
M  ISO  1   1  32
M  ISO  1   2  16
M  END
> <PUBCHEM_COMPOUND_CID>
49419686

$$$$

  CDK     1223141344

 22 24  0  0  0  0  0  0  0  0999 V2000
    9.6448    4.2500    0.0000 N   0  0  0  0  0  0  0  0  0  0  0  0
    5.3147   -1.2500    0.0000 N   0  0  0  0  0  0  0  0  0  0  0  0
    7.9128    3.2500    0.0000 N   0  0  3  0  0  0  0  0  0  0  0  0
    3.5827   -3.2500    0.0000 C   0  0  0  0  0  0  0  0  0  0  0  0
    2.6691   -2.8433    0.0000 C   0  0  0  0  0  0  0  0  0  0  0  0
    3.4782   -4.2445    0.0000 C   0  0  0  0  0  0  0  0  0  0  0  0
    2.5000   -4.4524    0.0000 C   0  0  0  0  0  0  0  0  0  0  0  0
    2.0000   -3.5864    0.0000 C   0  0  0  0  0  0  0  0  0  0  0  0
    4.4487   -2.7500    0.0000 C   0  0  3  0  0  0  0  0  0  0  0  0
    4.4487   -1.7500    0.0000 C   0  0  0  0  0  0  0  0  0  0  0  0
    8.7788    2.7500    0.0000 C   0  0  0  0  0  0  0  0  0  0  0  0
    9.6448    3.2500    0.0000 C   0  0  3  0  0  0  0  0  0  0  0  0
    7.9128    4.2500    0.0000 C   0  0  0  0  0  0  0  0  0  0  0  0
    5.3147   -0.2500    0.0000 C   0  0  0  0  0  0  0  0  0  0  0  0
    7.0468    2.7500    0.0000 C   0  0  0  0  0  0  0  0  0  0  0  0
    8.7788    4.7500    0.0000 C   0  0  0  0  0  0  0  0  0  0  0  0
    7.0468    1.7500    0.0000 C   0  0  0  0  0  0  0  0  0  0  0  0
    6.1808    0.2500    0.0000 C   0  0  0  0  0  0  0  0  0  0  0  0
    6.1808    1.2500    0.0000 C   0  0  0  0  0  0  0  0  0  0  0  0
    7.9128    1.2500    0.0000 C   0  0  0  0  0  0  0  0  0  0  0  0
    7.0468   -0.2500    0.0000 C   0  0  0  0  0  0  0  0  0  0  0  0
    7.9128    0.2500    0.0000 C   0  0  0  0  0  0  0  0  0  0  0  0
  1 12  1  0  0  0  0 
  1 16  1  0  0  0  0 
  2 10  1  0  0  0  0 
  2 14  1  0  0  0  0 
  3 11  1  0  0  0  0 
  3 13  1  0  0  0  0 
  3 15  1  0  0  0  0 
  4  5  1  0  0  0  0 
  4  6  1  0  0  0  0 
  4  9  1  0  0  0  0 
  5  8  1  0  0  0  0 
  6  7  1  0  0  0  0 
  7  8  1  0  0  0  0 
  9 10  1  0  0  0  0 
 11 12  1  0  0  0  0 
 13 16  1  0  0  0  0 
 14 18  1  0  0  0  0 
 15 17  1  0  0  0  0 
 17 19  1  0  0  0  0 
 17 20  1  0  0  0  0 
 18 19  1  0  0  0  0 
 18 21  1  0  0  0  0 
 20 22  1  0  0  0  0 
 21 22  1  0  0  0  0 
M  ISO  1   1  16
M  END
> <PUBCHEM_COMPOUND_CID>
47899785

$$$$

  CDK     1223141344

 22 24  0  0  0  0  0  0  0  0999 V2000
    4.5506    3.4920    0.0000 N   0  0  0  0  0  0  0  0  0  0  0  0
    8.1667    3.3933    0.0000 N   0  0  0  0  0  0  0  0  0  0  0  0
    6.3301    2.3988    0.0000 N   0  0  0  0  0  0  0  0  0  0  0  0
    8.0622    2.3988    0.0000 C   0  0  3  0  0  0  0  0  0  0  0  0
    8.9757    1.9920    0.0000 C   0  0  0  0  0  0  0  0  0  0  0  0
    9.6448    2.7352    0.0000 C   0  0  0  0  0  0  0  0  0  0  0  0
    7.1962    1.8988    0.0000 C   0  0  0  0  0  0  0  0  0  0  0  0
    9.1448    3.6012    0.0000 C   0  0  0  0  0  0  0  0  0  0  0  0
    6.3301    3.3988    0.0000 C   0  0  0  0  0  0  0  0  0  0  0  0
    5.4641    1.8988    0.0000 C   0  0  0  0  0  0  0  0  0  0  0  0
    5.4641    3.8988    0.0000 C   0  0  0  0  0  0  0  0  0  0  0  0
    5.4641    0.8988    0.0000 C   0  0  0  0  0  0  0  0  0  0  0  0
    5.3596    4.8933    0.0000 C   0  0  0  0  0  0  0  0  0  0  0  0
    4.5981    0.3988    0.0000 C   0  0  0  0  0  0  0  0  0  0  0  0
    4.3814    5.1012    0.0000 C   0  0  0  0  0  0  0  0  0  0  0  0
    3.8814    4.2352    0.0000 C   0  0  0  0  0  0  0  0  0  0  0  0
    4.5981   -0.6012    0.0000 C   0  0  0  0  0  0  0  0  0  0  0  0
    3.7320   -1.1012    0.0000 C   0  0  0  0  0  0  0  0  0  0  0  0
    5.4641   -1.1012    0.0000 C   0  0  0  0  0  0  0  0  0  0  0  0
    3.7320   -2.1012    0.0000 C   0  0  0  0  0  0  0  0  0  0  0  0
    4.5981   -2.6012    0.0000 C   0  0  0  0  0  0  0  0  0  0  0  0
    5.4641   -2.1012    0.0000 C   0  0  0  0  0  0  0  0  0  0  0  0
  1 11  1  0  0  0  0 
  1 16  1  0  0  0  0 
  2  4  1  0  0  0  0 
  2  8  1  0  0  0  0 
  3  7  1  0  0  0  0 
  3  9  1  0  0  0  0 
  3 10  1  0  0  0  0 
  4  5  1  0  0  0  0 
  4  7  1  0  0  0  0 
  5  6  1  0  0  0  0 
  6  8  1  0  0  0  0 
  9 11  1  0  0  0  0 
 10 12  1  0  0  0  0 
 11 13  1  0  0  0  0 
 12 14  1  0  0  0  0 
 13 15  1  0  0  0  0 
 14 17  1  0  0  0  0 
 15 16  1  0  0  0  0 
 17 18  1  0  0  0  0 
 17 19  1  0  0  0  0 
 18 20  1  0  0  0  0 
 19 22  1  0  0  0  0 
 20 21  1  0  0  0  0 
 21 22  1  0  0  0  0 
M  ISO  1   1  32
M  ISO  1   2  16
M  END
> <PUBCHEM_COMPOUND_CID>
18198587

$$$$

  CDK     1223141344

 22 24  0  0  0  0  0  0  0  0999 V2000
    6.4347    5.1433    0.0000 N   0  0  0  0  0  0  0  0  0  0  0  0
    5.4641    0.6488    0.0000 N   0  0  0  0  0  0  0  0  0  0  0  0
    5.4641    2.6488    0.0000 N   0  0  0  0  0  0  0  0  0  0  0  0
    3.7321   -2.3512    0.0000 N   0  0  0  0  0  0  0  0  0  0  0  0
    6.3301    1.1488    0.0000 C   0  0  0  0  0  0  0  0  0  0  0  0
    4.5981    1.1488    0.0000 C   0  0  0  0  0  0  0  0  0  0  0  0
    6.3301    2.1488    0.0000 C   0  0  0  0  0  0  0  0  0  0  0  0
    4.5981    2.1488    0.0000 C   0  0  0  0  0  0  0  0  0  0  0  0
    5.4641   -0.3512    0.0000 C   0  0  0  0  0  0  0  0  0  0  0  0
    4.5981   -0.8512    0.0000 C   0  0  0  0  0  0  0  0  0  0  0  0
    5.4641    3.6488    0.0000 C   0  0  0  0  0  0  0  0  0  0  0  0
    4.5981   -1.8512    0.0000 C   0  0  0  0  0  0  0  0  0  0  0  0
    6.3301    4.1488    0.0000 C   0  0  0  0  0  0  0  0  0  0  0  0
    7.2437    3.7421    0.0000 C   0  0  0  0  0  0  0  0  0  0  0  0
    3.7321   -3.3512    0.0000 C   0  0  0  0  0  0  0  0  0  0  0  0
    7.9128    4.4852    0.0000 C   0  0  0  0  0  0  0  0  0  0  0  0
    7.4128    5.3512    0.0000 C   0  0  0  0  0  0  0  0  0  0  0  0
    2.8660   -3.8512    0.0000 C   0  0  0  0  0  0  0  0  0  0  0  0
    4.5981   -3.8512    0.0000 C   0  0  0  0  0  0  0  0  0  0  0  0
    4.5981   -4.8512    0.0000 C   0  0  0  0  0  0  0  0  0  0  0  0
    2.8660   -4.8512    0.0000 C   0  0  0  0  0  0  0  0  0  0  0  0
    3.7321   -5.3512    0.0000 C   0  0  0  0  0  0  0  0  0  0  0  0
  1 13  1  0  0  0  0 
  1 17  1  0  0  0  0 
  2  5  1  0  0  0  0 
  2  6  1  0  0  0  0 
  2  9  1  0  0  0  0 
  3  7  1  0  0  0  0 
  3  8  1  0  0  0  0 
  3 11  1  0  0  0  0 
  4 12  1  0  0  0  0 
  4 15  1  0  0  0  0 
  5  7  1  0  0  0  0 
  6  8  1  0  0  0  0 
  9 10  1  0  0  0  0 
 10 12  1  0  0  0  0 
 11 13  1  0  0  0  0 
 13 14  1  0  0  0  0 
 14 16  1  0  0  0  0 
 15 18  1  0  0  0  0 
 15 19  1  0  0  0  0 
 16 17  1  0  0  0  0 
 18 21  1  0  0  0  0 
 19 20  1  0  0  0  0 
 20 22  1  0  0  0  0 
 21 22  1  0  0  0  0 
M  ISO  1   1  16
M  END
> <PUBCHEM_COMPOUND_CID>
37376101

$$$$

  CDK     1223141344

 22 24  0  0  0  0  0  0  0  0999 V2000
    8.2788    4.0241    0.0000 N   0  0  0  0  0  0  0  0  0  0  0  0
    7.3007    3.8162    0.0000 N   0  0  0  0  0  0  0  0  0  0  0  0
    5.4641   -0.1783    0.0000 N   0  0  0  0  0  0  0  0  0  0  0  0
    6.3301    2.3217    0.0000 C   0  0  0  0  0  0  0  0  0  0  0  0
    6.3301    1.3217    0.0000 C   0  0  0  0  0  0  0  0  0  0  0  0
    7.1962    2.8217    0.0000 C   0  0  0  0  0  0  0  0  0  0  0  0
    5.4641    0.8217    0.0000 C   0  0  0  0  0  0  0  0  0  0  0  0
    8.1097    2.4150    0.0000 C   0  0  0  0  0  0  0  0  0  0  0  0
    8.7788    3.1581    0.0000 C   0  0  0  0  0  0  0  0  0  0  0  0
    8.6856    4.9377    0.0000 C   0  0  0  0  0  0  0  0  0  0  0  0
    4.5981   -0.6783    0.0000 C   0  0  0  0  0  0  0  0  0  0  0  0
    4.5981   -1.6783    0.0000 C   0  0  0  0  0  0  0  0  0  0  0  0
    4.5981   -3.6783    0.0000 C   0  0  0  0  0  0  0  0  0  0  0  0
    3.7320   -2.1783    0.0000 C   0  0  0  0  0  0  0  0  0  0  0  0
    3.7320   -3.1783    0.0000 C   0  0  0  0  0  0  0  0  0  0  0  0
    5.4641   -2.1783    0.0000 C   0  0  0  0  0  0  0  0  0  0  0  0
    9.6801    5.0422    0.0000 C   0  0  0  0  0  0  0  0  0  0  0  0
    8.0978    5.7467    0.0000 C   0  0  0  0  0  0  0  0  0  0  0  0
    5.4641   -3.1783    0.0000 C   0  0  0  0  0  0  0  0  0  0  0  0
   10.0868    5.9558    0.0000 C   0  0  0  0  0  0  0  0  0  0  0  0
    8.5045    6.6602    0.0000 C   0  0  0  0  0  0  0  0  0  0  0  0
    9.4990    6.7648    0.0000 C   0  0  0  0  0  0  0  0  0  0  0  0
  1  2  1  0  0  0  0 
  1  9  1  0  0  0  0 
  1 10  1  0  0  0  0 
  2  6  1  0  0  0  0 
  3  7  1  0  0  0  0 
  3 11  1  0  0  0  0 
  4  5  1  0  0  0  0 
  4  6  1  0  0  0  0 
  5  7  1  0  0  0  0 
  6  8  1  0  0  0  0 
  8  9  1  0  0  0  0 
 10 17  1  0  0  0  0 
 10 18  1  0  0  0  0 
 11 12  1  0  0  0  0 
 12 14  1  0  0  0  0 
 12 16  1  0  0  0  0 
 13 15  1  0  0  0  0 
 13 19  1  0  0  0  0 
 14 15  1  0  0  0  0 
 16 19  1  0  0  0  0 
 17 20  1  0  0  0  0 
 18 21  1  0  0  0  0 
 20 22  1  0  0  0  0 
 21 22  1  0  0  0  0 
M  END
> <PUBCHEM_COMPOUND_CID>
39022188

$$$$
