
  CDK     1223141344

 22 25  0  0  0  0  0  0  0  0999 V2000
    4.4409   -1.0551    0.0000 N   0  0  0  0  0  0  0  0  0  0  0  0
    4.4409    2.9449    0.0000 N   0  0  0  0  0  0  0  0  0  0  0  0
    4.4409   -0.0551    0.0000 N   0  0  0  0  0  0  0  0  0  0  0  0
    4.4409    1.9449    0.0000 N   0  0  0  0  0  0  0  0  0  0  0  0
    2.0000   -1.8870    0.0000 C   0  0  0  0  0  0  0  0  0  0  0  0
    2.6671   -1.1500    0.0000 C   0  0  0  0  0  0  0  0  0  0  0  0
    2.4933   -2.7501    0.0000 C   0  0  0  0  0  0  0  0  0  0  0  0
    3.4718   -2.5438    0.0000 C   0  0  0  0  0  0  0  0  0  0  0  0
    3.5749   -1.5551    0.0000 C   0  0  0  0  0  0  0  0  0  0  0  0
    2.1827   -3.7006    0.0000 C   0  0  0  0  0  0  0  0  0  0  0  0
    4.1397   -3.2881    0.0000 C   0  0  0  0  0  0  0  0  0  0  0  0
    6.1730    1.9449    0.0000 C   0  0  0  0  0  0  0  0  0  0  0  0
    2.8505   -4.4449    0.0000 C   0  0  0  0  0  0  0  0  0  0  0  0
    3.8290   -4.2387    0.0000 C   0  0  0  0  0  0  0  0  0  0  0  0
    6.1730    2.9449    0.0000 C   0  0  0  0  0  0  0  0  0  0  0  0
    5.3069    1.4449    0.0000 C   0  0  0  0  0  0  0  0  0  0  0  0
    5.3069    3.4449    0.0000 C   0  0  0  0  0  0  0  0  0  0  0  0
    5.3069    0.4449    0.0000 C   0  0  0  0  0  0  0  0  0  0  0  0
    7.0669    1.4102    0.0000 C   0  0  0  0  0  0  0  0  0  0  0  0
    7.0669    3.4795    0.0000 C   0  0  0  0  0  0  0  0  0  0  0  0
    7.9730    1.9241    0.0000 C   0  0  0  0  0  0  0  0  0  0  0  0
    7.9730    2.9657    0.0000 C   0  0  0  0  0  0  0  0  0  0  0  0
  1  3  1  0  0  0  0 
  1  9  1  0  0  0  0 
  2  4  1  0  0  0  0 
  2 17  1  0  0  0  0 
  3 18  1  0  0  0  0 
  4 16  1  0  0  0  0 
  5  6  1  0  0  0  0 
  5  7  1  0  0  0  0 
  6  9  1  0  0  0  0 
  7  8  1  0  0  0  0 
  7 10  1  0  0  0  0 
  8  9  1  0  0  0  0 
  8 11  1  0  0  0  0 
 10 13  1  0  0  0  0 
 11 14  1  0  0  0  0 
 12 15  1  0  0  0  0 
 12 16  1  0  0  0  0 
 12 19  1  0  0  0  0 
 13 14  1  0  0  0  0 
 15 17  1  0  0  0  0 
 15 20  1  0  0  0  0 
 16 18  1  0  0  0  0 
 19 21  1  0  0  0  0 
 20 22  1  0  0  0  0 
 21 22  1  0  0  0  0 
M  END
> <PUBCHEM_COMPOUND_CID>
9771905

$$$$
