
  CDK     1223141344

 26 30  0  0  0  0  0  0  0  0999 V2000
    4.8717   -0.2989    0.0000 N   0  0  0  0  0  0  0  0  0  0  0  0
    7.0772   -2.4138    0.0000 N   0  0  3  0  0  0  0  0  0  0  0  0
    5.6808   -0.8867    0.0000 C   0  0  1  0  0  0  0  0  0  0  0  0
    5.3717   -1.8378    0.0000 C   0  0  1  0  0  0  0  0  0  0  0  0
    6.6962   -0.6545    0.0000 C   0  0  0  0  0  0  0  0  0  0  0  0
    6.0567   -2.6225    0.0000 C   0  0  0  0  0  0  0  0  0  0  0  0
    4.3717   -1.8378    0.0000 C   0  0  0  0  0  0  0  0  0  0  0  0
    7.3991   -1.4231    0.0000 C   0  0  0  0  0  0  0  0  0  0  0  0
    4.0627   -0.8867    0.0000 C   0  0  0  0  0  0  0  0  0  0  0  0
    7.7435   -3.1595    0.0000 C   0  0  0  0  0  0  0  0  0  0  0  0
    4.8717    0.7011    0.0000 C   0  0  0  0  0  0  0  0  0  0  0  0
    3.6868   -2.6225    0.0000 C   0  0  0  0  0  0  0  0  0  0  0  0
    3.0473   -0.6545    0.0000 C   0  0  0  0  0  0  0  0  0  0  0  0
    2.6663   -2.4138    0.0000 C   0  0  0  0  0  0  0  0  0  0  0  0
    2.3444   -1.4231    0.0000 C   0  0  0  0  0  0  0  0  0  0  0  0
    8.7224   -2.9554    0.0000 C   0  0  0  0  0  0  0  0  0  0  0  0
    5.7378    1.2011    0.0000 C   0  0  0  0  0  0  0  0  0  0  0  0
    4.0057    1.2011    0.0000 C   0  0  0  0  0  0  0  0  0  0  0  0
    9.0351   -2.0055    0.0000 C   0  0  0  0  0  0  0  0  0  0  0  0
    9.3887   -3.7011    0.0000 C   0  0  0  0  0  0  0  0  0  0  0  0
    5.7378    2.2011    0.0000 C   0  0  0  0  0  0  0  0  0  0  0  0
    4.0057    2.2011    0.0000 C   0  0  0  0  0  0  0  0  0  0  0  0
    4.8717    2.7011    0.0000 C   0  0  0  0  0  0  0  0  0  0  0  0
   10.0140   -1.8014    0.0000 C   0  0  0  0  0  0  0  0  0  0  0  0
   10.3676   -3.4969    0.0000 C   0  0  0  0  0  0  0  0  0  0  0  0
   10.6803   -2.5471    0.0000 C   0  0  0  0  0  0  0  0  0  0  0  0
  1  3  1  0  0  0  0 
  1  9  1  0  0  0  0 
  1 11  1  0  0  0  0 
  2  6  1  0  0  0  0 
  2  8  1  0  0  0  0 
  2 10  1  0  0  0  0 
  3  4  1  0  0  0  0 
  3  5  1  0  0  0  0 
  4  6  1  0  0  0  0 
  4  7  1  0  0  0  0 
  5  8  1  0  0  0  0 
  7  9  1  0  0  0  0 
  7 12  1  0  0  0  0 
  9 13  1  0  0  0  0 
 10 16  1  0  0  0  0 
 11 17  1  0  0  0  0 
 11 18  1  0  0  0  0 
 12 14  1  0  0  0  0 
 13 15  1  0  0  0  0 
 14 15  1  0  0  0  0 
 16 19  1  0  0  0  0 
 16 20  1  0  0  0  0 
 17 21  1  0  0  0  0 
 18 22  1  0  0  0  0 
 19 24  1  0  0  0  0 
 20 25  1  0  0  0  0 
 21 23  1  0  0  0  0 
 22 23  1  0  0  0  0 
 24 26  1  0  0  0  0 
 25 26  1  0  0  0  0 
M  END
> <PUBCHEM_COMPOUND_CID>
53867153

$$$$

  CDK     1223141344

 26 30  0  0  0  0  0  0  0  0999 V2000
    9.1857    0.6478    0.0000 N   0  0  0  0  0  0  0  0  0  0  0  0
    8.5179    1.3921    0.0000 N   0  0  0  0  0  0  0  0  0  0  0  0
   11.7640    2.9613    0.0000 N   0  0  0  0  0  0  0  0  0  0  0  0
    6.1968   -1.6074    0.0000 C   0  0  1  0  0  0  0  0  0  0  0  0
    7.0628   -2.1074    0.0000 C   0  0  2  0  0  0  0  0  0  0  0  0
    7.9288   -1.6074    0.0000 C   0  0  1  0  0  0  0  0  0  0  0  0
    7.9288   -0.6074    0.0000 C   0  0  2  0  0  0  0  0  0  0  0  0
    5.2868   -2.1143    0.0000 C   0  0  2  0  0  0  0  0  0  0  0  0
    6.1968   -0.6074    0.0000 C   0  0  0  0  0  0  0  0  0  0  0  0
    7.0628   -0.1074    0.0000 C   0  0  0  0  0  0  0  0  0  0  0  0
    8.8750   -1.9122    0.0000 C   0  0  0  0  0  0  0  0  0  0  0  0
    7.0789   -3.1489    0.0000 C   0  0  0  0  0  0  0  0  0  0  0  0
    5.2787   -3.1559    0.0000 C   0  0  0  0  0  0  0  0  0  0  0  0
    8.8750   -0.3027    0.0000 C   0  0  0  0  0  0  0  0  0  0  0  0
    4.3599   -1.5502    0.0000 C   0  0  0  0  0  0  0  0  0  0  0  0
    9.4586   -1.1074    0.0000 C   0  0  0  0  0  0  0  0  0  0  0  0
    6.1808   -3.6767    0.0000 C   0  0  0  0  0  0  0  0  0  0  0  0
    4.3433   -3.7056    0.0000 C   0  0  0  0  0  0  0  0  0  0  0  0
    3.4120   -2.0781    0.0000 C   0  0  0  0  0  0  0  0  0  0  0  0
    3.4037   -3.1631    0.0000 C   0  0  2  0  0  0  0  0  0  0  0  0
    8.8285    2.3426    0.0000 C   0  0  0  0  0  0  0  0  0  0  0  0
    9.8070    2.5489    0.0000 C   0  0  0  0  0  0  0  0  0  0  0  0
   10.1177    3.4994    0.0000 C   0  0  0  0  0  0  0  0  0  0  0  0
   10.4749    1.8046    0.0000 C   0  0  0  0  0  0  0  0  0  0  0  0
   11.0962    3.7056    0.0000 C   0  0  0  0  0  0  0  0  0  0  0  0
   11.4534    2.0108    0.0000 C   0  0  0  0  0  0  0  0  0  0  0  0
  1  2  1  0  0  0  0 
  1 14  1  0  0  0  0 
  2 21  1  0  0  0  0 
  3 25  1  0  0  0  0 
  3 26  1  0  0  0  0 
  4  5  1  0  0  0  0 
  4  8  1  0  0  0  0 
  4  9  1  0  0  0  0 
  5  6  1  0  0  0  0 
  5 12  1  0  0  0  0 
  6  7  1  0  0  0  0 
  6 11  1  0  0  0  0 
  7 10  1  0  0  0  0 
  7 14  1  0  0  0  0 
  8 13  1  0  0  0  0 
  8 15  1  0  0  0  0 
  9 10  1  0  0  0  0 
 11 16  1  0  0  0  0 
 12 17  1  0  0  0  0 
 13 17  1  0  0  0  0 
 13 18  1  0  0  0  0 
 14 16  1  0  0  0  0 
 15 19  1  0  0  0  0 
 18 20  1  0  0  0  0 
 19 20  1  0  0  0  0 
 21 22  1  0  0  0  0 
 22 23  1  0  0  0  0 
 22 24  1  0  0  0  0 
 23 25  1  0  0  0  0 
 24 26  1  0  0  0  0 
M  END
> <PUBCHEM_COMPOUND_CID>
16403572

$$$$
