
  CDK     1223141344

 29 33  0  0  0  0  0  0  0  0999 V2000
    5.7172   -1.5795    0.0000 N   0  0  0  0  0  0  0  0  0  0  0  0
    4.3511    2.4594    0.0000 N   0  0  0  0  0  0  0  0  0  0  0  0
    6.7998   -4.7819    0.0000 N   0  0  3  0  0  0  0  0  0  0  0  0
    7.2998   -3.9159    0.0000 N   0  0  0  0  0  0  0  0  0  0  0  0
    4.8511   -3.0795    0.0000 N   0  0  0  0  0  0  0  0  0  0  0  0
    3.9851   -0.5795    0.0000 N   0  0  0  0  0  0  0  0  0  0  0  0
    3.9851   -1.5795    0.0000 N   0  0  0  0  0  0  0  0  0  0  0  0
    4.0421    1.5083    0.0000 C   0  0  0  0  0  0  0  0  0  0  0  0
    4.8511    0.9205    0.0000 C   0  0  0  0  0  0  0  0  0  0  0  0
    5.3511    2.4594    0.0000 C   0  0  0  0  0  0  0  0  0  0  0  0
    5.6602    1.5083    0.0000 C   0  0  0  0  0  0  0  0  0  0  0  0
    5.8217   -4.5740    0.0000 C   0  0  0  0  0  0  0  0  0  0  0  0
    5.7172   -3.5795    0.0000 C   0  0  0  0  0  0  0  0  0  0  0  0
    3.7634    3.2684    0.0000 C   0  0  0  0  0  0  0  0  0  0  0  0
    4.8511   -0.0795    0.0000 C   0  0  0  0  0  0  0  0  0  0  0  0
    6.6307   -3.1727    0.0000 C   0  0  0  0  0  0  0  0  0  0  0  0
    5.7172   -0.5795    0.0000 C   0  0  0  0  0  0  0  0  0  0  0  0
    8.2944   -3.8114    0.0000 C   0  0  0  0  0  0  0  0  0  0  0  0
    4.1701    4.1819    0.0000 C   0  0  0  0  0  0  0  0  0  0  0  0
    2.7688    3.1639    0.0000 C   0  0  0  0  0  0  0  0  0  0  0  0
    4.8511   -2.0795    0.0000 C   0  0  0  0  0  0  0  0  0  0  0  0
    2.5878    4.8864    0.0000 C   0  0  0  0  0  0  0  0  0  0  0  0
    3.5823    4.9910    0.0000 C   0  0  0  0  0  0  0  0  0  0  0  0
    2.1810    3.9729    0.0000 C   0  0  0  0  0  0  0  0  0  0  0  0
    8.8822   -4.6204    0.0000 C   0  0  0  0  0  0  0  0  0  0  0  0
    8.7011   -2.8978    0.0000 C   0  0  0  0  0  0  0  0  0  0  0  0
    9.8767   -4.5158    0.0000 C   0  0  0  0  0  0  0  0  0  0  0  0
    9.6956   -2.7933    0.0000 C   0  0  0  0  0  0  0  0  0  0  0  0
   10.2834   -3.6023    0.0000 C   0  0  0  0  0  0  0  0  0  0  0  0
  1 17  1  0  0  0  0 
  1 21  1  0  0  0  0 
  2  8  1  0  0  0  0 
  2 10  1  0  0  0  0 
  2 14  1  0  0  0  0 
  3  4  1  0  0  0  0 
  3 12  1  0  0  0  0 
  4 16  1  0  0  0  0 
  4 18  1  0  0  0  0 
  5 13  1  0  0  0  0 
  5 21  1  0  0  0  0 
  6  7  1  0  0  0  0 
  6 15  1  0  0  0  0 
  7 21  1  0  0  0  0 
  8  9  1  0  0  0  0 
  9 11  1  0  0  0  0 
  9 15  1  0  0  0  0 
 10 11  1  0  0  0  0 
 12 13  1  0  0  0  0 
 13 16  1  0  0  0  0 
 14 19  1  0  0  0  0 
 14 20  1  0  0  0  0 
 15 17  1  0  0  0  0 
 18 25  1  0  0  0  0 
 18 26  1  0  0  0  0 
 19 23  1  0  0  0  0 
 20 24  1  0  0  0  0 
 22 23  1  0  0  0  0 
 22 24  1  0  0  0  0 
 25 27  1  0  0  0  0 
 26 28  1  0  0  0  0 
 27 29  1  0  0  0  0 
 28 29  1  0  0  0  0 
M  ISO  1   1  32
M  END
> <PUBCHEM_COMPOUND_CID>
17566360

$$$$
