
  CDK     1223141344

 32 36  0  0  0  0  0  0  0  0999 V2000
    4.5981   -1.0000    0.0000 N   0  0  0  0  0  0  0  0  0  0  0  0
    2.8660    7.0000    0.0000 N   0  0  0  0  0  0  0  0  0  0  0  0
    2.8660    5.0000    0.0000 N   0  0  0  0  0  0  0  0  0  0  0  0
    2.8660    1.0000    0.0000 N   0  0  0  0  0  0  0  0  0  0  0  0
    3.7320   -2.5000    0.0000 N   0  0  0  0  0  0  0  0  0  0  0  0
    3.7320   -3.5000    0.0000 N   0  0  0  0  0  0  0  0  0  0  0  0
    2.0000    5.5000    0.0000 C   0  0  0  0  0  0  0  0  0  0  0  0
    3.7320    5.5000    0.0000 C   0  0  0  0  0  0  0  0  0  0  0  0
    2.0000    6.5000    0.0000 C   0  0  0  0  0  0  0  0  0  0  0  0
    3.7320    6.5000    0.0000 C   0  0  0  0  0  0  0  0  0  0  0  0
    2.8660    4.0000    0.0000 C   0  0  0  0  0  0  0  0  0  0  0  0
    3.7320    3.5000    0.0000 C   0  0  0  0  0  0  0  0  0  0  0  0
    2.0000    3.5000    0.0000 C   0  0  0  0  0  0  0  0  0  0  0  0
    2.8660    2.0000    0.0000 C   0  0  0  0  0  0  0  0  0  0  0  0
    3.7320    2.5000    0.0000 C   0  0  0  0  0  0  0  0  0  0  0  0
    2.0000    2.5000    0.0000 C   0  0  0  0  0  0  0  0  0  0  0  0
    3.7320   -0.5000    0.0000 C   0  0  1  0  0  0  0  0  0  0  0  0
    5.4641   -2.5000    0.0000 C   0  0  0  0  0  0  0  0  0  0  0  0
    5.4641   -3.5000    0.0000 C   0  0  0  0  0  0  0  0  0  0  0  0
    3.7320    0.5000    0.0000 C   0  0  0  0  0  0  0  0  0  0  0  0
    4.5981   -2.0000    0.0000 C   0  0  0  0  0  0  0  0  0  0  0  0
    4.5981   -4.0000    0.0000 C   0  0  0  0  0  0  0  0  0  0  0  0
    6.3580   -1.9653    0.0000 C   0  0  0  0  0  0  0  0  0  0  0  0
    4.5981   -5.0000    0.0000 C   0  0  0  0  0  0  0  0  0  0  0  0
    6.3580   -4.0347    0.0000 C   0  0  0  0  0  0  0  0  0  0  0  0
    7.2641   -2.4792    0.0000 C   0  0  0  0  0  0  0  0  0  0  0  0
    7.2641   -3.5208    0.0000 C   0  0  0  0  0  0  0  0  0  0  0  0
    5.4641   -5.5000    0.0000 C   0  0  0  0  0  0  0  0  0  0  0  0
    3.7320   -5.5000    0.0000 C   0  0  0  0  0  0  0  0  0  0  0  0
    5.4641   -6.5000    0.0000 C   0  0  0  0  0  0  0  0  0  0  0  0
    3.7320   -6.5000    0.0000 C   0  0  0  0  0  0  0  0  0  0  0  0
    4.5981   -7.0000    0.0000 C   0  0  0  0  0  0  0  0  0  0  0  0
  1 17  1  0  0  0  0 
  1 21  1  0  0  0  0 
  2  9  1  0  0  0  0 
  2 10  1  0  0  0  0 
  3  7  1  0  0  0  0 
  3  8  1  0  0  0  0 
  3 11  1  0  0  0  0 
  4 14  1  0  0  0  0 
  4 20  1  0  0  0  0 
  5  6  1  0  0  0  0 
  5 21  1  0  0  0  0 
  6 22  1  0  0  0  0 
  7  9  1  0  0  0  0 
  8 10  1  0  0  0  0 
 11 12  1  0  0  0  0 
 11 13  1  0  0  0  0 
 12 15  1  0  0  0  0 
 13 16  1  0  0  0  0 
 14 15  1  0  0  0  0 
 14 16  1  0  0  0  0 
 17 20  1  0  0  0  0 
 18 19  1  0  0  0  0 
 18 21  1  0  0  0  0 
 18 23  1  0  0  0  0 
 19 22  1  0  0  0  0 
 19 25  1  0  0  0  0 
 22 24  1  0  0  0  0 
 23 26  1  0  0  0  0 
 24 28  1  0  0  0  0 
 24 29  1  0  0  0  0 
 25 27  1  0  0  0  0 
 26 27  1  0  0  0  0 
 28 30  1  0  0  0  0 
 29 31  1  0  0  0  0 
 30 32  1  0  0  0  0 
 31 32  1  0  0  0  0 
M  ISO  1   1  32
M  ISO  1   2  16
M  END
> <PUBCHEM_COMPOUND_CID>
25717563

$$$$

  CDK     1223141344

 32 36  0  0  0  0  0  0  0  0999 V2000
    6.3359    1.4773    0.0000 N   0  0  0  0  0  0  0  0  0  0  0  0
   11.6782    3.3062    0.0000 N   0  0  0  0  0  0  0  0  0  0  0  0
   11.6782    1.6967    0.0000 N   0  0  0  0  0  0  0  0  0  0  0  0
    7.2000    3.0222    0.0000 N   0  0  0  0  0  0  0  0  0  0  0  0
    8.1060    1.4668    0.0000 N   0  0  0  0  0  0  0  0  0  0  0  0
    5.4795   -1.0260    0.0000 N   0  0  0  0  0  0  0  0  0  0  0  0
    9.0000    3.0014    0.0000 C   0  0  0  0  0  0  0  0  0  0  0  0
    6.3359    3.5256    0.0000 C   0  0  0  0  0  0  0  0  0  0  0  0
    9.0000    2.0014    0.0000 C   0  0  0  0  0  0  0  0  0  0  0  0
    8.1060    3.5361    0.0000 C   0  0  0  0  0  0  0  0  0  0  0  0
    7.2000    1.9806    0.0000 C   0  0  0  0  0  0  0  0  0  0  0  0
    9.8660    3.5014    0.0000 C   0  0  0  0  0  0  0  0  0  0  0  0
   10.7320    3.0014    0.0000 C   0  0  0  0  0  0  0  0  0  0  0  0
   10.7320    2.0014    0.0000 C   0  0  0  0  0  0  0  0  0  0  0  0
    9.8660    1.5014    0.0000 C   0  0  0  0  0  0  0  0  0  0  0  0
    5.4679    3.0289    0.0000 C   0  0  0  0  0  0  0  0  0  0  0  0
   12.2619    2.5014    0.0000 C   0  0  0  0  0  0  0  0  0  0  0  0
    4.6038    3.5323    0.0000 C   0  0  0  0  0  0  0  0  0  0  0  0
    5.4641    2.0289    0.0000 C   0  0  0  0  0  0  0  0  0  0  0  0
    4.6193   -2.5294    0.0000 C   0  0  0  0  0  0  0  0  0  0  0  0
    6.3397    0.4773    0.0000 C   0  0  0  0  0  0  0  0  0  0  0  0
    4.6154   -1.5294    0.0000 C   0  0  0  0  0  0  0  0  0  0  0  0
    3.7552   -3.0327    0.0000 C   0  0  0  0  0  0  0  0  0  0  0  0
    5.4756   -0.0260    0.0000 C   0  0  0  0  0  0  0  0  0  0  0  0
    3.7359    3.0356    0.0000 C   0  0  0  0  0  0  0  0  0  0  0  0
    4.5961    1.5323    0.0000 C   0  0  0  0  0  0  0  0  0  0  0  0
    3.7320    2.0356    0.0000 C   0  0  0  0  0  0  0  0  0  0  0  0
    2.8872   -2.5360    0.0000 C   0  0  0  0  0  0  0  0  0  0  0  0
    3.7590   -4.0327    0.0000 C   0  0  0  0  0  0  0  0  0  0  0  0
    2.0231   -3.0394    0.0000 C   0  0  0  0  0  0  0  0  0  0  0  0
    2.8949   -4.5360    0.0000 C   0  0  0  0  0  0  0  0  0  0  0  0
    2.0270   -4.0394    0.0000 C   0  0  0  0  0  0  0  0  0  0  0  0
  1 11  1  0  0  0  0 
  1 21  1  0  0  0  0 
  2 13  1  0  0  0  0 
  2 17  1  0  0  0  0 
  3 14  1  0  0  0  0 
  3 17  1  0  0  0  0 
  4  8  1  0  0  0  0 
  4 10  1  0  0  0  0 
  4 11  1  0  0  0  0 
  5  9  1  0  0  0  0 
  5 11  1  0  0  0  0 
  6 22  1  0  0  0  0 
  6 24  1  0  0  0  0 
  7  9  1  0  0  0  0 
  7 10  1  0  0  0  0 
  7 12  1  0  0  0  0 
  8 16  1  0  0  0  0 
  9 15  1  0  0  0  0 
 12 13  1  0  0  0  0 
 13 14  1  0  0  0  0 
 14 15  1  0  0  0  0 
 16 18  1  0  0  0  0 
 16 19  1  0  0  0  0 
 18 25  1  0  0  0  0 
 19 26  1  0  0  0  0 
 20 22  1  0  0  0  0 
 20 23  1  0  0  0  0 
 21 24  1  0  0  0  0 
 23 28  1  0  0  0  0 
 23 29  1  0  0  0  0 
 25 27  1  0  0  0  0 
 26 27  1  0  0  0  0 
 28 30  1  0  0  0  0 
 29 31  1  0  0  0  0 
 30 32  1  0  0  0  0 
 31 32  1  0  0  0  0 
M  ISO  1   1  32
M  ISO  1   2  16
M  ISO  1   3  16
M  END
> <PUBCHEM_COMPOUND_CID>
4282443

$$$$
