
  CDK     1223141344

 39 43  0  0  0  0  0  0  0  0999 V2000
   13.1090    1.8318    0.0000 N   0  0  3  0  0  0  0  0  0  0  0  0
   11.3769   -1.1682    0.0000 N   0  0  3  0  0  0  0  0  0  0  0  0
   13.1090    5.8318    0.0000 N   0  0  0  0  0  0  0  0  0  0  0  0
    7.9128   -3.1682    0.0000 N   0  0  0  0  0  0  0  0  0  0  0  0
   13.9750    6.3318    0.0000 N   0  0  0  0  0  0  0  0  0  0  0  0
    7.9128   -4.1682    0.0000 N   0  0  0  0  0  0  0  0  0  0  0  0
    4.4487   -6.1682    0.0000 N   0  0  0  0  0  0  0  0  0  0  0  0
   13.1660    7.9196    0.0000 N   0  0  0  0  0  0  0  0  0  0  0  0
   14.7840    7.9196    0.0000 N   0  0  0  0  0  0  0  0  0  0  0  0
    4.4487   -7.1682    0.0000 N   0  0  0  0  0  0  0  0  0  0  0  0
    3.4782   -8.6627    0.0000 N   0  0  0  0  0  0  0  0  0  0  0  0
    2.6691   -7.2615    0.0000 N   0  0  0  0  0  0  0  0  0  0  0  0
   12.2429    0.3318    0.0000 C   0  0  0  0  0  0  0  0  0  0  0  0
   12.2429    1.3318    0.0000 C   0  0  0  0  0  0  0  0  0  0  0  0
   11.3769   -0.1682    0.0000 C   0  0  0  0  0  0  0  0  0  0  0  0
   13.1090    2.8318    0.0000 C   0  0  0  0  0  0  0  0  0  0  0  0
   10.5109   -1.6682    0.0000 C   0  0  0  0  0  0  0  0  0  0  0  0
   13.9750    3.3318    0.0000 C   0  0  0  0  0  0  0  0  0  0  0  0
   12.2429    3.3318    0.0000 C   0  0  0  0  0  0  0  0  0  0  0  0
   10.5109   -2.6682    0.0000 C   0  0  0  0  0  0  0  0  0  0  0  0
    9.6448   -1.1682    0.0000 C   0  0  0  0  0  0  0  0  0  0  0  0
   13.9750    4.3318    0.0000 C   0  0  0  0  0  0  0  0  0  0  0  0
   12.2429    4.3318    0.0000 C   0  0  0  0  0  0  0  0  0  0  0  0
   13.1090    4.8318    0.0000 C   0  0  0  0  0  0  0  0  0  0  0  0
    9.6448   -3.1682    0.0000 C   0  0  0  0  0  0  0  0  0  0  0  0
    8.7788   -1.6682    0.0000 C   0  0  0  0  0  0  0  0  0  0  0  0
    8.7788   -2.6682    0.0000 C   0  0  0  0  0  0  0  0  0  0  0  0
    7.0468   -4.6682    0.0000 C   0  0  0  0  0  0  0  0  0  0  0  0
    6.1808   -4.1682    0.0000 C   0  0  0  0  0  0  0  0  0  0  0  0
    7.0468   -5.6682    0.0000 C   0  0  0  0  0  0  0  0  0  0  0  0
   13.9750    7.3318    0.0000 C   0  0  0  0  0  0  0  0  0  0  0  0
    5.3147   -5.6682    0.0000 C   0  0  0  0  0  0  0  0  0  0  0  0
    5.3147   -4.6682    0.0000 C   0  0  0  0  0  0  0  0  0  0  0  0
    6.1808   -6.1682    0.0000 C   0  0  0  0  0  0  0  0  0  0  0  0
   14.4750    8.8706    0.0000 C   0  0  0  0  0  0  0  0  0  0  0  0
   13.4750    8.8706    0.0000 C   0  0  0  0  0  0  0  0  0  0  0  0
    3.5827   -7.6682    0.0000 C   0  0  0  0  0  0  0  0  0  0  0  0
    2.5000   -8.8706    0.0000 C   0  0  0  0  0  0  0  0  0  0  0  0
    2.0000   -8.0046    0.0000 C   0  0  0  0  0  0  0  0  0  0  0  0
  1 14  1  0  0  0  0 
  1 16  1  0  0  0  0 
  2 15  1  0  0  0  0 
  2 17  1  0  0  0  0 
  3  5  1  0  0  0  0 
  3 24  1  0  0  0  0 
  4  6  1  0  0  0  0 
  4 27  1  0  0  0  0 
  5 31  1  0  0  0  0 
  6 28  1  0  0  0  0 
  7 10  1  0  0  0  0 
  7 32  1  0  0  0  0 
  8 31  1  0  0  0  0 
  8 36  1  0  0  0  0 
  9 31  1  0  0  0  0 
  9 35  1  0  0  0  0 
 10 37  1  0  0  0  0 
 11 37  1  0  0  0  0 
 11 38  1  0  0  0  0 
 12 37  1  0  0  0  0 
 12 39  1  0  0  0  0 
 13 14  1  0  0  0  0 
 13 15  1  0  0  0  0 
 16 18  1  0  0  0  0 
 16 19  1  0  0  0  0 
 17 20  1  0  0  0  0 
 17 21  1  0  0  0  0 
 18 22  1  0  0  0  0 
 19 23  1  0  0  0  0 
 20 25  1  0  0  0  0 
 21 26  1  0  0  0  0 
 22 24  1  0  0  0  0 
 23 24  1  0  0  0  0 
 25 27  1  0  0  0  0 
 26 27  1  0  0  0  0 
 28 29  1  0  0  0  0 
 28 30  1  0  0  0  0 
 29 33  1  0  0  0  0 
 30 34  1  0  0  0  0 
 32 33  1  0  0  0  0 
 32 34  1  0  0  0  0 
 35 36  1  0  0  0  0 
 38 39  1  0  0  0  0 
M  END
> <PUBCHEM_COMPOUND_CID>
59779392

$$$$
