
  CDK     0202151410

 13 13  0  0  0  0  0  0  0  0999 V2000
    4.6783    0.6708    0.0000 O   0  0  0  0  0  0  0  0  0  0  0  0
    6.7619    0.7321    0.0000 O   0  0  0  0  0  0  0  0  0  0  0  0
    6.7619   -1.0000    0.0000 N   0  0  0  0  0  0  0  0  0  0  0  0
    3.7320    0.3660    0.0000 C   0  0  0  0  0  0  0  0  0  0  0  0
    3.7320   -0.6340    0.0000 C   0  0  0  0  0  0  0  0  0  0  0  0
    5.2619   -0.1340    0.0000 C   0  0  0  0  0  0  0  0  0  0  0  0
    2.8660    0.8660    0.0000 C   0  0  0  0  0  0  0  0  0  0  0  0
    4.6783   -0.9387    0.0000 C   0  0  0  0  0  0  0  0  0  0  0  0
    6.2619   -0.1340    0.0000 C   0  0  0  0  0  0  0  0  0  0  0  0
    7.7619   -1.0000    0.0000 C   0  0  0  0  0  0  0  0  0  0  0  0
    6.2619   -1.8660    0.0000 C   0  0  0  0  0  0  0  0  0  0  0  0
    8.2619   -1.8660    0.0000 C   0  0  0  0  0  0  0  0  0  0  0  0
    8.2619   -0.1340    0.0000 C   0  0  0  0  0  0  0  0  0  0  0  0
  1  4  1  0  0  0  0 
  1  6  1  0  0  0  0 
  2  9  1  0  0  0  0 
  3  9  1  0  0  0  0 
  3 10  1  0  0  0  0 
  3 11  1  0  0  0  0 
  4  5  1  0  0  0  0 
  4  7  1  0  0  0  0 
  5  8  1  0  0  0  0 
  6  8  1  0  0  0  0 
  6  9  1  0  0  0  0 
 10 12  1  0  0  0  0 
 10 13  1  0  0  0  0 
M  END
> <PUBCHEM_COMPOUND_CID>
48983308

$$$$

  CDK     0202151410

 12 11  0  0  0  0  0  0  0  0999 V2000
    5.4641   -0.2673    0.0000 O   0  0  0  0  0  0  0  0  0  0  0  0
    4.5981    1.2327    0.0000 N   0  0  0  0  0  0  0  0  0  0  0  0
    3.7320    1.7327    0.0000 C   0  0  0  0  0  0  0  0  0  0  0  0
    5.4641    1.7327    0.0000 C   0  0  0  0  0  0  0  0  0  0  0  0
    3.7320    2.7327    0.0000 C   0  0  0  0  0  0  0  0  0  0  0  0
    5.4641    2.7327    0.0000 C   0  0  0  0  0  0  0  0  0  0  0  0
    4.5981    0.2327    0.0000 C   0  0  0  0  0  0  0  0  0  0  0  0
    3.7320   -0.2673    0.0000 C   0  0  0  0  0  0  0  0  0  0  0  0
    6.3580    1.1980    0.0000 C   0  0  0  0  0  0  0  0  0  0  0  0
    3.7320   -1.2673    0.0000 C   0  0  0  0  0  0  0  0  0  0  0  0
    2.8660   -1.7673    0.0000 C   0  0  0  0  0  0  0  0  0  0  0  0
    4.5981   -1.7673    0.0000 C   0  0  0  0  0  0  0  0  0  0  0  0
  1  7  1  0  0  0  0 
  2  3  1  0  0  0  0 
  2  4  1  0  0  0  0 
  2  7  1  0  0  0  0 
  3  5  1  0  0  0  0 
  4  6  1  0  0  0  0 
  4  9  1  0  0  0  0 
  7  8  1  0  0  0  0 
  8 10  1  0  0  0  0 
 10 11  1  0  0  0  0 
 10 12  1  0  0  0  0 
M  END
> <PUBCHEM_COMPOUND_CID>
37693406

$$$$
