51368099
  CDK     1229141544

 42 45  0  0  0  0  0  0  0  0999 V2000
    2.6691    2.7420    0.0000 S   0  0  0  0  0  0  0  0  0  0  0  0
    6.1808   -0.3512    0.0000 O   0  0  0  0  0  0  0  0  0  0  0  0
    3.5827    1.1488    0.0000 O   0  0  0  0  0  0  0  0  0  0  0  0
    9.7109   -0.3754    0.0000 O   0  0  0  0  0  0  0  0  0  0  0  0
    4.4487   -0.3512    0.0000 N   0  0  0  0  0  0  0  0  0  0  0  0
    4.4487    2.6488    0.0000 N   0  0  0  0  0  0  0  0  0  0  0  0
    3.4782    4.1433    0.0000 N   0  0  0  0  0  0  0  0  0  0  0  0
    7.0468    1.1488    0.0000 C   0  0  0  0  0  0  0  0  0  0  0  0
    5.3147    1.1488    0.0000 C   0  0  0  0  0  0  0  0  0  0  0  0
    5.3147    0.1488    0.0000 C   0  0  0  0  0  0  0  0  0  0  0  0
    7.0468    0.1488    0.0000 C   0  0  0  0  0  0  0  0  0  0  0  0
    6.1808    1.6488    0.0000 C   0  0  0  0  0  0  0  0  0  0  0  0
    4.4487   -1.3512    0.0000 C   0  0  0  0  0  0  0  0  0  0  0  0
    7.9407    1.6834    0.0000 C   0  0  0  0  0  0  0  0  0  0  0  0
    7.9407   -0.3859    0.0000 C   0  0  0  0  0  0  0  0  0  0  0  0
    4.4487    1.6488    0.0000 C   0  0  0  0  0  0  0  0  0  0  0  0
    3.5827   -1.8512    0.0000 C   0  0  0  0  0  0  0  0  0  0  0  0
    5.3147   -1.8512    0.0000 C   0  0  0  0  0  0  0  0  0  0  0  0
    8.8468    1.1696    0.0000 C   0  0  0  0  0  0  0  0  0  0  0  0
    8.8468    0.1280    0.0000 C   0  0  0  0  0  0  0  0  0  0  0  0
    4.4487   -3.3512    0.0000 C   0  0  0  0  0  0  0  0  0  0  0  0
    3.5827   -2.8512    0.0000 C   0  0  0  0  0  0  0  0  0  0  0  0
    5.3147   -2.8512    0.0000 C   0  0  0  0  0  0  0  0  0  0  0  0
    4.4487   -4.3512    0.0000 C   0  0  0  0  0  0  0  0  0  0  0  0
    3.5827    3.1488    0.0000 C   0  0  0  0  0  0  0  0  0  0  0  0
    2.0000    3.4852    0.0000 C   0  0  0  0  0  0  0  0  0  0  0  0
    2.5000    4.3512    0.0000 C   0  0  0  0  0  0  0  0  0  0  0  0
    6.1808    2.2688    0.0000 H   0  0  0  0  0  0  0  0  0  0  0  0
    3.9118   -0.0412    0.0000 H   0  0  0  0  0  0  0  0  0  0  0  0
    7.9336    2.3034    0.0000 H   0  0  0  0  0  0  0  0  0  0  0  0
    7.9336   -1.0058    0.0000 H   0  0  0  0  0  0  0  0  0  0  0  0
    3.0457   -1.5412    0.0000 H   0  0  0  0  0  0  0  0  0  0  0  0
    5.8517   -1.5412    0.0000 H   0  0  0  0  0  0  0  0  0  0  0  0
    9.3825    1.4817    0.0000 H   0  0  0  0  0  0  0  0  0  0  0  0
    3.0457   -3.1612    0.0000 H   0  0  0  0  0  0  0  0  0  0  0  0
    5.8517   -3.1612    0.0000 H   0  0  0  0  0  0  0  0  0  0  0  0
    4.9856    2.9588    0.0000 H   0  0  0  0  0  0  0  0  0  0  0  0
    3.8287   -4.3512    0.0000 H   0  0  0  0  0  0  0  0  0  0  0  0
    4.4487   -4.9712    0.0000 H   0  0  0  0  0  0  0  0  0  0  0  0
    5.0687   -4.3512    0.0000 H   0  0  0  0  0  0  0  0  0  0  0  0
    1.3834    3.4204    0.0000 H   0  0  0  0  0  0  0  0  0  0  0  0
    2.2478    4.9176    0.0000 H   0  0  0  0  0  0  0  0  0  0  0  0
  1 25  1  0  0  0  0 
  1 26  1  0  0  0  0 
  2 10  1  0  0  0  0 
  2 11  1  0  0  0  0 
  3 16  2  0  0  0  0 
  4 20  2  0  0  0  0 
  5 10  1  0  0  0  0 
  5 13  1  0  0  0  0 
  5 29  1  0  0  0  0 
  6 16  1  0  0  0  0 
  6 25  1  0  0  0  0 
  6 37  1  0  0  0  0 
  7 25  2  0  0  0  0 
  7 27  1  0  0  0  0 
  8 11  1  0  0  0  0 
  8 12  2  0  0  0  0 
  8 14  1  0  0  0  0 
  9 10  2  0  0  0  0 
  9 12  1  0  0  0  0 
  9 16  1  0  0  0  0 
 11 15  2  0  0  0  0 
 12 28  1  0  0  0  0 
 13 17  2  0  0  0  0 
 13 18  1  0  0  0  0 
 14 19  2  0  0  0  0 
 14 30  1  0  0  0  0 
 15 20  1  0  0  0  0 
 15 31  1  0  0  0  0 
 17 22  1  0  0  0  0 
 17 32  1  0  0  0  0 
 18 23  2  0  0  0  0 
 18 33  1  0  0  0  0 
 19 20  1  0  0  0  0 
 19 34  1  0  0  0  0 
 21 22  2  0  0  0  0 
 21 23  1  0  0  0  0 
 21 24  1  0  0  0  0 
 22 35  1  0  0  0  0 
 23 36  1  0  0  0  0 
 24 38  1  0  0  0  0 
 24 39  1  0  0  0  0 
 24 40  1  0  0  0  0 
 26 27  2  0  0  0  0 
 26 41  1  0  0  0  0 
 27 42  1  0  0  0  0 
M  END
> <cdk:Title>
51368099

> <cdk:Remark>
null

> <PUBCHEM_COMPOUND_CID>
51368099

> <PUBCHEM_COMPOUND_CANONICALIZED>
1

> <PUBCHEM_CACTVS_COMPLEXITY>
760

> <PUBCHEM_CACTVS_HBOND_ACCEPTOR>
6

> <PUBCHEM_CACTVS_HBOND_DONOR>
2

> <PUBCHEM_CACTVS_ROTATABLE_BOND>
4

> <PUBCHEM_CACTVS_SUBSKEYS>
AAADccB7MABAAAAAAAAAAAAAAAAAAWAAAAAwQIAAAAAAAACBwAAAHgQQAAAADAzF2gS/0ZLIFAisArV3dACC+KlxKjlJyA0YZMmIJCLAuZGMMAho0QJI6ecQgAAOCAAAAAAAAAAQAAAAAAAAAAAAAAAAAA==

> <PUBCHEM_IUPAC_OPENEYE_NAME>
2-(4-methylanilino)-7-oxo-N-thiazol-2-yl-chromene-3-carboxamide

> <PUBCHEM_IUPAC_CAS_NAME>
2-(4-methylanilino)-7-oxo-N-(2-thiazolyl)-1-benzopyran-3-carboxamide

> <PUBCHEM_IUPAC_NAME>
2-(4-methylanilino)-7-oxo-N-(1,3-thiazol-2-yl)chromene-3-carboxamide

> <PUBCHEM_IUPAC_SYSTEMATIC_NAME>
2-[(4-methylphenyl)amino]-7-oxidanylidene-N-(1,3-thiazol-2-yl)chromene-3-carboxamide

> <PUBCHEM_IUPAC_TRADITIONAL_NAME>
7-keto-2-(p-toluidino)-N-thiazol-2-yl-chromene-3-carboxamide

> <PUBCHEM_IUPAC_INCHI>
InChI=1S/C20H15N3O3S/c1-12-2-5-14(6-3-12)22-19-16(18(25)23-20-21-8-9-27-20)10-13-4-7-15(24)11-17(13)26-19/h2-11,22H,1H3,(H,21,23,25)

> <PUBCHEM_IUPAC_INCHIKEY>
LSULFEJLFNZKJE-UHFFFAOYSA-N

> <PUBCHEM_XLOGP3_AA>
3.6

> <PUBCHEM_EXACT_MASS>
377.083412

> <PUBCHEM_MOLECULAR_FORMULA>
C20H15N3O3S

> <PUBCHEM_MOLECULAR_WEIGHT>
377.4164

> <PUBCHEM_OPENEYE_CAN_SMILES>
CC1=CC=C(C=C1)NC2=C(C=C3C=CC(=O)C=C3O2)C(=O)NC4=NC=CS4

> <PUBCHEM_OPENEYE_ISO_SMILES>
CC1=CC=C(C=C1)NC2=C(C=C3C=CC(=O)C=C3O2)C(=O)NC4=NC=CS4

> <PUBCHEM_CACTVS_TPSA>
109

> <PUBCHEM_MONOISOTOPIC_WEIGHT>
377.083412

> <PUBCHEM_TOTAL_CHARGE>
0

> <PUBCHEM_HEAVY_ATOM_COUNT>
27

> <PUBCHEM_ATOM_DEF_STEREO_COUNT>
0

> <PUBCHEM_ATOM_UDEF_STEREO_COUNT>
0

> <PUBCHEM_BOND_DEF_STEREO_COUNT>
0

> <PUBCHEM_BOND_UDEF_STEREO_COUNT>
0

> <PUBCHEM_ISOTOPIC_ATOM_COUNT>
0

> <PUBCHEM_COMPONENT_COUNT>
1

> <PUBCHEM_CACTVS_TAUTO_COUNT>
20

> <PUBCHEM_COORDINATE_TYPE>
1

> <PUBCHEM_BONDANNOTATIONS>
1  25  8

$$$$
7293924
  CDK     1229141544

 53 56  0  0  0  0  0  0  0  0999 V2000
    4.2320    3.1651    0.0000 Cl  0  0  0  0  0  0  0  0  0  0  0  0
    5.8198   -1.1081    0.0000 S   0  0  0  0  0  0  0  0  0  0  0  0
    5.5108    1.4610    0.0000 O   0  0  0  0  0  0  0  0  0  0  0  0
    3.7320   -1.1651    0.0000 N   0  0  0  0  0  0  0  0  0  0  0  0
    6.7709    0.2010    0.0000 N   0  0  0  0  0  0  0  0  0  0  0  0
    7.7171    0.5057    0.0000 N   0  0  0  0  0  0  0  0  0  0  0  0
    7.7171   -1.1038    0.0000 N   0  0  0  0  0  0  0  0  0  0  0  0
    4.5981   -1.6651    0.0000 C   0  0  0  0  0  0  0  0  0  0  0  0
    2.8660   -1.6651    0.0000 C   0  0  0  0  0  0  0  0  0  0  0  0
    4.5981   -2.6651    0.0000 C   0  0  2  0  0  0  0  0  0  0  0  0
    2.8660   -2.6651    0.0000 C   0  0  2  0  0  0  0  0  0  0  0  0
    3.7320   -3.1651    0.0000 C   0  0  0  0  0  0  0  0  0  0  0  0
    4.2320   -0.2990    0.0000 C   0  0  2  0  0  0  0  0  0  0  0  0
    5.4641   -3.1651    0.0000 C   0  0  0  0  0  0  0  0  0  0  0  0
    2.0000   -3.1651    0.0000 C   0  0  0  0  0  0  0  0  0  0  0  0
    5.2320   -0.2990    0.0000 C   0  0  0  0  0  0  0  0  0  0  0  0
    3.7320    0.5670    0.0000 C   0  0  0  0  0  0  0  0  0  0  0  0
    5.8198    0.5100    0.0000 C   0  0  0  0  0  0  0  0  0  0  0  0
    4.2320    1.4330    0.0000 C   0  0  0  0  0  0  0  0  0  0  0  0
    2.7320    0.5670    0.0000 C   0  0  0  0  0  0  0  0  0  0  0  0
    6.7709   -0.7990    0.0000 C   0  0  0  0  0  0  0  0  0  0  0  0
    3.7320    2.2990    0.0000 C   0  0  0  0  0  0  0  0  0  0  0  0
    2.2320    1.4330    0.0000 C   0  0  0  0  0  0  0  0  0  0  0  0
    2.7320    2.2990    0.0000 C   0  0  0  0  0  0  0  0  0  0  0  0
    8.3007   -0.2990    0.0000 C   0  0  0  0  0  0  0  0  0  0  0  0
    9.3007   -0.2990    0.0000 C   0  0  0  0  0  0  0  0  0  0  0  0
    9.8007   -1.1651    0.0000 C   0  0  0  0  0  0  0  0  0  0  0  0
    3.2320   -0.2990    0.0000 H   0  0  0  0  0  0  0  0  0  0  0  0
    5.2087   -1.7727    0.0000 H   0  0  0  0  0  0  0  0  0  0  0  0
    4.8101   -1.0824    0.0000 H   0  0  0  0  0  0  0  0  0  0  0  0
    2.6540   -1.0824    0.0000 H   0  0  0  0  0  0  0  0  0  0  0  0
    2.2554   -1.7727    0.0000 H   0  0  0  0  0  0  0  0  0  0  0  0
    4.5981   -3.2851    0.0000 H   0  0  0  0  0  0  0  0  0  0  0  0
    2.8660   -3.2851    0.0000 H   0  0  0  0  0  0  0  0  0  0  0  0
    3.3335   -3.6400    0.0000 H   0  0  0  0  0  0  0  0  0  0  0  0
    4.1306   -3.6400    0.0000 H   0  0  0  0  0  0  0  0  0  0  0  0
    4.5420   -0.8360    0.0000 H   0  0  0  0  0  0  0  0  0  0  0  0
    5.1541   -3.7020    0.0000 H   0  0  0  0  0  0  0  0  0  0  0  0
    6.0010   -3.4751    0.0000 H   0  0  0  0  0  0  0  0  0  0  0  0
    5.7741   -2.6281    0.0000 H   0  0  0  0  0  0  0  0  0  0  0  0
    1.6900   -2.6281    0.0000 H   0  0  0  0  0  0  0  0  0  0  0  0
    1.4631   -3.4751    0.0000 H   0  0  0  0  0  0  0  0  0  0  0  0
    2.3100   -3.7020    0.0000 H   0  0  0  0  0  0  0  0  0  0  0  0
    4.8520    1.4330    0.0000 H   0  0  0  0  0  0  0  0  0  0  0  0
    2.4220    0.0301    0.0000 H   0  0  0  0  0  0  0  0  0  0  0  0
    1.6120    1.4330    0.0000 H   0  0  0  0  0  0  0  0  0  0  0  0
    2.4220    2.8360    0.0000 H   0  0  0  0  0  0  0  0  0  0  0  0
    5.9257    1.9218    0.0000 H   0  0  0  0  0  0  0  0  0  0  0  0
    9.8833   -0.0870    0.0000 H   0  0  0  0  0  0  0  0  0  0  0  0
    9.1931    0.3115    0.0000 H   0  0  0  0  0  0  0  0  0  0  0  0
    9.2638   -1.4751    0.0000 H   0  0  0  0  0  0  0  0  0  0  0  0
   10.1107   -1.7020    0.0000 H   0  0  0  0  0  0  0  0  0  0  0  0
   10.3377   -0.8551    0.0000 H   0  0  0  0  0  0  0  0  0  0  0  0
  1 22  1  0  0  0  0 
  2 16  1  0  0  0  0 
  2 21  1  0  0  0  0 
  3 18  1  0  0  0  0 
  3 48  1  0  0  0  0 
  4  8  1  0  0  0  0 
  4  9  1  0  0  0  0 
 13  4  1  1  0  0  0 
  4 28  1  0  0  0  0 
  5  6  1  0  0  0  0 
  5 18  1  0  0  0  0 
  5 21  1  0  0  0  0 
  6 25  2  0  0  0  0 
  7 21  2  0  0  0  0 
  7 25  1  0  0  0  0 
  8 10  1  0  0  0  0 
  8 29  1  0  0  0  0 
  8 30  1  0  0  0  0 
  9 11  1  0  0  0  0 
  9 31  1  0  0  0  0 
  9 32  1  0  0  0  0 
 10 12  1  0  0  0  0 
 10 14  1  1  0  0  0 
 10 33  1  0  0  0  0 
 11 12  1  0  0  0  0 
 11 15  1  6  0  0  0 
 11 34  1  0  0  0  0 
 12 35  1  0  0  0  0 
 12 36  1  0  0  0  0 
 13 16  1  0  0  0  0 
 13 17  1  0  0  0  0 
 13 37  1  0  0  0  0 
 14 38  1  0  0  0  0 
 14 39  1  0  0  0  0 
 14 40  1  0  0  0  0 
 15 41  1  0  0  0  0 
 15 42  1  0  0  0  0 
 15 43  1  0  0  0  0 
 16 18  2  0  0  0  0 
 17 19  2  0  0  0  0 
 17 20  1  0  0  0  0 
 19 22  1  0  0  0  0 
 19 44  1  0  0  0  0 
 20 23  2  0  0  0  0 
 20 45  1  0  0  0  0 
 22 24  2  0  0  0  0 
 23 24  1  0  0  0  0 
 23 46  1  0  0  0  0 
 24 47  1  0  0  0  0 
 25 26  1  0  0  0  0 
 26 27  1  0  0  0  0 
 26 49  1  0  0  0  0 
 26 50  1  0  0  0  0 
 27 51  1  0  0  0  0 
 27 52  1  0  0  0  0 
 27 53  1  0  0  0  0 
M  CHG  1   4   1
M  END
> <cdk:Title>
7293924

> <cdk:Remark>
null

> <PUBCHEM_COMPOUND_CID>
7293924

> <PUBCHEM_COMPOUND_CANONICALIZED>
1

> <PUBCHEM_CACTVS_COMPLEXITY>
504

> <PUBCHEM_CACTVS_HBOND_ACCEPTOR>
4

> <PUBCHEM_CACTVS_HBOND_DONOR>
2

> <PUBCHEM_CACTVS_ROTATABLE_BOND>
4

> <PUBCHEM_CACTVS_SUBSKEYS>
AAADceB7oABEAAAAAAAAAAAAAAAAAWLAAAA8QAAAAAAWAAAB8AAAHgYYCAAADSrB2yQzlZfIEgimAiJiZACS9KthLbgdmIY8RoyIKCLj2xOE4AhumALIyCeQwKAOAAAAIAAAAAAAAABAAAAAAAAAAAAAAA==

> <PUBCHEM_IUPAC_OPENEYE_NAME>
5-[(S)-(3-chlorophenyl)-[(3S,5S)-3,5-dimethylpiperidin-1-ium-1-yl]methyl]-2-ethyl-thiazolo[3,2-b][1,2,4]triazol-6-ol

> <PUBCHEM_IUPAC_CAS_NAME>
5-[(S)-(3-chlorophenyl)-[(3S,5S)-3,5-dimethyl-1-piperidin-1-iumyl]methyl]-2-ethyl-6-thiazolo[3,2-b][1,2,4]triazolol

> <PUBCHEM_IUPAC_NAME>
5-[(S)-(3-chlorophenyl)-[(3S,5S)-3,5-dimethylpiperidin-1-ium-1-yl]methyl]-2-ethyl-[1,3]thiazolo[3,2-b][1,2,4]triazol-6-ol

> <PUBCHEM_IUPAC_SYSTEMATIC_NAME>
5-[(S)-(3-chlorophenyl)-[(3S,5S)-3,5-dimethylpiperidin-1-ium-1-yl]methyl]-2-ethyl-[1,3]thiazolo[3,2-b][1,2,4]triazol-6-ol

> <PUBCHEM_IUPAC_TRADITIONAL_NAME>
5-[(S)-(3-chlorophenyl)-[(3S,5S)-3,5-dimethylpiperidin-1-ium-1-yl]methyl]-2-ethyl-thiazolo[3,2-b][1,2,4]triazol-6-ol

> <PUBCHEM_IUPAC_INCHI>
InChI=1S/C20H25ClN4OS/c1-4-16-22-20-25(23-16)19(26)18(27-20)17(14-6-5-7-15(21)9-14)24-10-12(2)8-13(3)11-24/h5-7,9,12-13,17,26H,4,8,10-11H2,1-3H3/p+1/t12-,13-,17-/m0/s1

> <PUBCHEM_IUPAC_INCHIKEY>
KNQFVMFTIGUJOB-DCGLDWPTSA-O

> <PUBCHEM_XLOGP3_AA>
5.6

> <PUBCHEM_EXACT_MASS>
405.151585

> <PUBCHEM_MOLECULAR_FORMULA>
C20H26ClN4OS+

> <PUBCHEM_MOLECULAR_WEIGHT>
405.96464

> <PUBCHEM_OPENEYE_CAN_SMILES>
CCC1=NN2C(=C(SC2=N1)C(C3=CC(=CC=C3)Cl)[NH+]4CC(CC(C4)C)C)O

> <PUBCHEM_OPENEYE_ISO_SMILES>
CCC1=NN2C(=C(SC2=N1)[C@H](C3=CC(=CC=C3)Cl)[NH+]4C[C@H](C[C@@H](C4)C)C)O

> <PUBCHEM_CACTVS_TPSA>
83.1

> <PUBCHEM_MONOISOTOPIC_WEIGHT>
405.151585

> <PUBCHEM_TOTAL_CHARGE>
1

> <PUBCHEM_HEAVY_ATOM_COUNT>
27

> <PUBCHEM_ATOM_DEF_STEREO_COUNT>
3

> <PUBCHEM_ATOM_UDEF_STEREO_COUNT>
0

> <PUBCHEM_BOND_DEF_STEREO_COUNT>
0

> <PUBCHEM_BOND_UDEF_STEREO_COUNT>
0

> <PUBCHEM_ISOTOPIC_ATOM_COUNT>
0

> <PUBCHEM_COMPONENT_COUNT>
1

> <PUBCHEM_CACTVS_TAUTO_COUNT>
2

> <PUBCHEM_COORDINATE_TYPE>
1

> <PUBCHEM_BONDANNOTATIONS>
10  14  5

$$$$
56220661
  CDK     1229141544

 43 46  0  0  0  0  0  0  0  0999 V2000
    9.1984    2.2250    0.0000 S   0  0  0  0  0  0  0  0  0  0  0  0
    5.1613    2.2521    0.0000 O   0  0  0  0  0  0  0  0  0  0  0  0
    2.3660    1.8649    0.0000 O   0  0  0  0  0  0  0  0  0  0  0  0
    3.9538    2.6739    0.0000 O   0  0  0  0  0  0  0  0  0  0  0  0
    7.9383    0.9650    0.0000 N   0  0  0  0  0  0  0  0  0  0  0  0
    3.6750    0.9139    0.0000 N   0  0  0  0  0  0  0  0  0  0  0  0
    9.6984    0.6862    0.0000 N   0  0  0  0  0  0  0  0  0  0  0  0
    2.0570    0.9139    0.0000 N   0  0  0  0  0  0  0  0  0  0  0  0
    6.3203    0.9650    0.0000 C   0  0  0  0  0  0  0  0  0  0  0  0
    7.1293    1.5527    0.0000 C   0  0  0  0  0  0  0  0  0  0  0  0
    7.6293    0.0139    0.0000 C   0  0  0  0  0  0  0  0  0  0  0  0
    6.6293    0.0139    0.0000 C   0  0  0  0  0  0  0  0  0  0  0  0
    5.3692    1.2740    0.0000 C   0  0  0  0  0  0  0  0  0  0  0  0
    4.6261    0.6048    0.0000 C   0  0  0  0  0  0  0  0  0  0  0  0
    7.1293    2.5527    0.0000 C   0  0  0  0  0  0  0  0  0  0  0  0
    8.8894    1.2740    0.0000 C   0  0  0  0  0  0  0  0  0  0  0  0
    8.2171   -0.7951    0.0000 C   0  0  0  0  0  0  0  0  0  0  0  0
    2.8660    0.3261    0.0000 C   0  0  0  0  0  0  0  0  0  0  0  0
    2.8660   -0.6739    0.0000 C   0  0  0  0  0  0  0  0  0  0  0  0
    3.3660    1.8649    0.0000 C   0  0  0  0  0  0  0  0  0  0  0  0
    3.7320   -1.1739    0.0000 C   0  0  0  0  0  0  0  0  0  0  0  0
    2.0000   -1.1739    0.0000 C   0  0  0  0  0  0  0  0  0  0  0  0
   10.1984    2.2250    0.0000 C   0  0  0  0  0  0  0  0  0  0  0  0
   10.5074    1.2740    0.0000 C   0  0  0  0  0  0  0  0  0  0  0  0
    3.7320   -2.1739    0.0000 C   0  0  0  0  0  0  0  0  0  0  0  0
    2.0000   -2.1739    0.0000 C   0  0  0  0  0  0  0  0  0  0  0  0
    2.8660   -2.6739    0.0000 C   0  0  0  0  0  0  0  0  0  0  0  0
    6.2649   -0.4877    0.0000 H   0  0  0  0  0  0  0  0  0  0  0  0
    4.3350    0.0574    0.0000 H   0  0  0  0  0  0  0  0  0  0  0  0
    5.1147    0.2231    0.0000 H   0  0  0  0  0  0  0  0  0  0  0  0
    7.7493    2.5527    0.0000 H   0  0  0  0  0  0  0  0  0  0  0  0
    7.1293    3.1727    0.0000 H   0  0  0  0  0  0  0  0  0  0  0  0
    6.5093    2.5527    0.0000 H   0  0  0  0  0  0  0  0  0  0  0  0
    7.7155   -1.1596    0.0000 H   0  0  0  0  0  0  0  0  0  0  0  0
    8.5815   -1.2967    0.0000 H   0  0  0  0  0  0  0  0  0  0  0  0
    8.7187   -0.4307    0.0000 H   0  0  0  0  0  0  0  0  0  0  0  0
    4.2690   -0.8639    0.0000 H   0  0  0  0  0  0  0  0  0  0  0  0
    1.4631   -0.8639    0.0000 H   0  0  0  0  0  0  0  0  0  0  0  0
   10.5628    2.7266    0.0000 H   0  0  0  0  0  0  0  0  0  0  0  0
   11.0971    1.0824    0.0000 H   0  0  0  0  0  0  0  0  0  0  0  0
    4.2690   -2.4839    0.0000 H   0  0  0  0  0  0  0  0  0  0  0  0
    1.4631   -2.4839    0.0000 H   0  0  0  0  0  0  0  0  0  0  0  0
    2.8660   -3.2939    0.0000 H   0  0  0  0  0  0  0  0  0  0  0  0
  1 16  1  0  0  0  0 
  1 23  1  0  0  0  0 
  2 13  2  0  0  0  0 
  3  8  1  0  0  0  0 
  3 20  1  0  0  0  0 
  4 20  2  0  0  0  0 
  5 10  1  0  0  0  0 
  5 11  1  0  0  0  0 
  5 16  1  0  0  0  0 
  6 14  1  0  0  0  0 
  6 18  1  0  0  0  0 
  6 20  1  0  0  0  0 
  7 16  2  0  0  0  0 
  7 24  1  0  0  0  0 
  8 18  2  0  0  0  0 
  9 10  2  0  0  0  0 
  9 12  1  0  0  0  0 
  9 13  1  0  0  0  0 
 10 15  1  0  0  0  0 
 11 12  2  0  0  0  0 
 11 17  1  0  0  0  0 
 12 28  1  0  0  0  0 
 13 14  1  0  0  0  0 
 14 29  1  0  0  0  0 
 14 30  1  0  0  0  0 
 15 31  1  0  0  0  0 
 15 32  1  0  0  0  0 
 15 33  1  0  0  0  0 
 17 34  1  0  0  0  0 
 17 35  1  0  0  0  0 
 17 36  1  0  0  0  0 
 18 19  1  0  0  0  0 
 19 21  2  0  0  0  0 
 19 22  1  0  0  0  0 
 21 25  1  0  0  0  0 
 21 37  1  0  0  0  0 
 22 26  2  0  0  0  0 
 22 38  1  0  0  0  0 
 23 24  2  0  0  0  0 
 23 39  1  0  0  0  0 
 24 40  1  0  0  0  0 
 25 27  2  0  0  0  0 
 25 41  1  0  0  0  0 
 26 27  1  0  0  0  0 
 26 42  1  0  0  0  0 
 27 43  1  0  0  0  0 
M  END
> <cdk:Title>
56220661

> <cdk:Remark>
null

> <PUBCHEM_COMPOUND_CID>
56220661

> <PUBCHEM_COMPOUND_CANONICALIZED>
1

> <PUBCHEM_CACTVS_COMPLEXITY>
622

> <PUBCHEM_CACTVS_HBOND_ACCEPTOR>
6

> <PUBCHEM_CACTVS_HBOND_DONOR>
0

> <PUBCHEM_CACTVS_ROTATABLE_BOND>
5

> <PUBCHEM_CACTVS_SUBSKEYS>
AAADceB7sABAAAAAAAAAAAAAAAAAAWLEAAAwAAAAAAAAAAAB8AAAHgQEAAAADAzF3gS/mZMcEAisA7Z3fACC8Kl1CjhJ2C24ZNiIIPrAnbGEIYhohgLIyeccgAAOAAAAAAAAAAAAAAAAAAAAAAAAAAAAAA==

> <PUBCHEM_IUPAC_OPENEYE_NAME>
4-[2-(2,5-dimethyl-1-thiazol-2-yl-pyrrol-3-yl)-2-oxo-ethyl]-3-phenyl-1,2,4-oxadiazol-5-one

> <PUBCHEM_IUPAC_CAS_NAME>
4-[2-[2,5-dimethyl-1-(2-thiazolyl)-3-pyrrolyl]-2-oxoethyl]-3-phenyl-1,2,4-oxadiazol-5-one

> <PUBCHEM_IUPAC_NAME>
4-[2-[2,5-dimethyl-1-(1,3-thiazol-2-yl)pyrrol-3-yl]-2-oxoethyl]-3-phenyl-1,2,4-oxadiazol-5-one

> <PUBCHEM_IUPAC_SYSTEMATIC_NAME>
4-[2-[2,5-dimethyl-1-(1,3-thiazol-2-yl)pyrrol-3-yl]-2-oxidanylidene-ethyl]-3-phenyl-1,2,4-oxadiazol-5-one

> <PUBCHEM_IUPAC_TRADITIONAL_NAME>
4-[2-(2,5-dimethyl-1-thiazol-2-yl-pyrrol-3-yl)-2-keto-ethyl]-3-phenyl-1,2,4-oxadiazol-5-one

> <PUBCHEM_IUPAC_INCHI>
InChI=1S/C19H16N4O3S/c1-12-10-15(13(2)23(12)18-20-8-9-27-18)16(24)11-22-17(21-26-19(22)25)14-6-4-3-5-7-14/h3-10H,11H2,1-2H3

> <PUBCHEM_IUPAC_INCHIKEY>
FJKCGWGWWJTLEX-UHFFFAOYSA-N

> <PUBCHEM_XLOGP3_AA>
3.6

> <PUBCHEM_EXACT_MASS>
380.094311

> <PUBCHEM_MOLECULAR_FORMULA>
C19H16N4O3S

> <PUBCHEM_MOLECULAR_WEIGHT>
380.42034

> <PUBCHEM_OPENEYE_CAN_SMILES>
CC1=CC(=C(N1C2=NC=CS2)C)C(=O)CN3C(=NOC3=O)C4=CC=CC=C4

> <PUBCHEM_OPENEYE_ISO_SMILES>
CC1=CC(=C(N1C2=NC=CS2)C)C(=O)CN3C(=NOC3=O)C4=CC=CC=C4

> <PUBCHEM_CACTVS_TPSA>
105

> <PUBCHEM_MONOISOTOPIC_WEIGHT>
380.094311

> <PUBCHEM_TOTAL_CHARGE>
0

> <PUBCHEM_HEAVY_ATOM_COUNT>
27

> <PUBCHEM_ATOM_DEF_STEREO_COUNT>
0

> <PUBCHEM_ATOM_UDEF_STEREO_COUNT>
0

> <PUBCHEM_BOND_DEF_STEREO_COUNT>
0

> <PUBCHEM_BOND_UDEF_STEREO_COUNT>
0

> <PUBCHEM_ISOTOPIC_ATOM_COUNT>
0

> <PUBCHEM_COMPONENT_COUNT>
1

> <PUBCHEM_CACTVS_TAUTO_COUNT>
2

> <PUBCHEM_COORDINATE_TYPE>
1

> <PUBCHEM_BONDANNOTATIONS>
1  16  8

$$$$
