
  CDK     0202151410

 22 24  0  0  0  0  0  0  0  0999 V2000
    5.7172   -1.5795    0.0000 S   0  0  0  0  0  0  0  0  0  0  0  0
    6.8386   -2.1946    0.0000 O   0  0  0  0  0  0  0  0  0  0  0  0
    4.3511    2.4594    0.0000 N   0  0  0  0  0  0  0  0  0  0  0  0
    6.7998   -4.7819    0.0000 N   0  0  3  0  0  0  0  0  0  0  0  0
    7.2998   -3.9159    0.0000 N   0  0  0  0  0  0  0  0  0  0  0  0
    4.8511   -3.0795    0.0000 N   0  0  0  0  0  0  0  0  0  0  0  0
    3.9851   -0.5795    0.0000 N   0  0  0  0  0  0  0  0  0  0  0  0
    3.9851   -1.5795    0.0000 N   0  0  0  0  0  0  0  0  0  0  0  0
    4.0421    1.5083    0.0000 C   0  0  0  0  0  0  0  0  0  0  0  0
    4.8511    0.9205    0.0000 C   0  0  0  0  0  0  0  0  0  0  0  0
    5.3511    2.4594    0.0000 C   0  0  0  0  0  0  0  0  0  0  0  0
    5.6602    1.5083    0.0000 C   0  0  0  0  0  0  0  0  0  0  0  0
    5.8217   -4.5740    0.0000 C   0  0  0  0  0  0  0  0  0  0  0  0
    5.7172   -3.5795    0.0000 C   0  0  0  0  0  0  0  0  0  0  0  0
    3.7634    3.2684    0.0000 C   0  0  0  0  0  0  0  0  0  0  0  0
    4.8511   -0.0795    0.0000 C   0  0  0  0  0  0  0  0  0  0  0  0
    6.6307   -3.1727    0.0000 C   0  0  0  0  0  0  0  0  0  0  0  0
    3.0911    1.1993    0.0000 C   0  0  0  0  0  0  0  0  0  0  0  0
    5.7172   -0.5795    0.0000 C   0  0  0  0  0  0  0  0  0  0  0  0
    8.2944   -3.8114    0.0000 C   0  0  0  0  0  0  0  0  0  0  0  0
    5.0786   -5.2431    0.0000 C   0  0  0  0  0  0  0  0  0  0  0  0
    4.8511   -2.0795    0.0000 C   0  0  0  0  0  0  0  0  0  0  0  0
  1 19  1  0  0  0  0 
  1 22  1  0  0  0  0 
  2 17  1  0  0  0  0 
  3  9  1  0  0  0  0 
  3 11  1  0  0  0  0 
  3 15  1  0  0  0  0 
  4  5  1  0  0  0  0 
  4 13  1  0  0  0  0 
  5 17  1  0  0  0  0 
  5 20  1  0  0  0  0 
  6 14  1  0  0  0  0 
  6 22  1  0  0  0  0 
  7  8  1  0  0  0  0 
  7 16  1  0  0  0  0 
  8 22  1  0  0  0  0 
  9 10  1  0  0  0  0 
  9 18  1  0  0  0  0 
 10 12  1  0  0  0  0 
 10 16  1  0  0  0  0 
 11 12  1  0  0  0  0 
 13 14  1  0  0  0  0 
 13 21  1  0  0  0  0 
 14 17  1  0  0  0  0 
 16 19  1  0  0  0  0 
M  END
> <PUBCHEM_COMPOUND_CID>
17566360

$$$$
