
  CDK     0202151410

 22 24  0  0  0  0  0  0  0  0999 V2000
    7.6279    1.3244    0.0000 O   0  0  0  0  0  0  0  0  0  0  0  0
    9.1279    2.1904    0.0000 O   0  0  0  0  0  0  0  0  0  0  0  0
    9.4643   -1.1243    0.0000 N   0  0  0  0  0  0  0  0  0  0  0  0
    5.5443    2.9951    0.0000 N   0  0  0  0  0  0  0  0  0  0  0  0
    3.7320    1.1904    0.0000 N   0  0  0  0  0  0  0  0  0  0  0  0
    5.5443    1.3857    0.0000 N   0  0  0  0  0  0  0  0  0  0  0  0
    2.8660    2.6904    0.0000 N   0  0  0  0  0  0  0  0  0  0  0  0
    9.1279    0.4584    0.0000 C   0  0  2  0  0  0  0  0  0  0  0  0
    8.7212   -0.4552    0.0000 C   0  0  0  0  0  0  0  0  0  0  0  0
   10.1224    0.3538    0.0000 C   0  0  0  0  0  0  0  0  0  0  0  0
   10.3303   -0.6243    0.0000 C   0  0  0  0  0  0  0  0  0  0  0  0
    8.6279    1.3244    0.0000 C   0  0  0  0  0  0  0  0  0  0  0  0
    4.5981    2.6904    0.0000 C   0  0  0  0  0  0  0  0  0  0  0  0
    6.1279    2.1904    0.0000 C   0  0  0  0  0  0  0  0  0  0  0  0
    4.5981    1.6904    0.0000 C   0  0  0  0  0  0  0  0  0  0  0  0
    9.3598   -2.1188    0.0000 C   0  0  0  0  0  0  0  0  0  0  0  0
    5.8550    3.9457    0.0000 C   0  0  0  0  0  0  0  0  0  0  0  0
    7.1279    2.1904    0.0000 C   0  0  0  0  0  0  0  0  0  0  0  0
    3.7320    0.1904    0.0000 C   0  0  0  0  0  0  0  0  0  0  0  0
    3.7320    3.1904    0.0000 C   0  0  0  0  0  0  0  0  0  0  0  0
    6.8335    4.1519    0.0000 C   0  0  0  0  0  0  0  0  0  0  0  0
    2.8660    1.6904    0.0000 C   0  0  0  0  0  0  0  0  0  0  0  0
  1 12  1  0  0  0  0 
  1 18  1  0  0  0  0 
  2 12  1  0  0  0  0 
  3  9  1  0  0  0  0 
  3 11  1  0  0  0  0 
  3 16  1  0  0  0  0 
  4 13  1  0  0  0  0 
  4 14  1  0  0  0  0 
  4 17  1  0  0  0  0 
  5 15  1  0  0  0  0 
  5 19  1  0  0  0  0 
  5 22  1  0  0  0  0 
  6 14  1  0  0  0  0 
  6 15  1  0  0  0  0 
  7 20  1  0  0  0  0 
  7 22  1  0  0  0  0 
  8  9  1  0  0  0  0 
  8 10  1  0  0  0  0 
  8 12  1  1  0  0  0 
 10 11  1  0  0  0  0 
 13 15  1  0  0  0  0 
 13 20  1  0  0  0  0 
 14 18  1  0  0  0  0 
 17 21  1  0  0  0  0 
M  END
> <PUBCHEM_COMPOUND_CID>
33709847

$$$$

  CDK     0202151410

 22 23  0  0  0  0  0  0  0  0999 V2000
    5.4641   -0.2500    0.0000 O   0  0  0  0  0  0  0  0  0  0  0  0
    9.7942    1.2500    0.0000 N   0  0  0  0  0  0  0  0  0  0  0  0
    8.0622   -1.7500    0.0000 N   0  0  0  0  0  0  0  0  0  0  0  0
    5.4641   -4.2500    0.0000 N   0  0  0  0  0  0  0  0  0  0  0  0
    9.7942   -1.7500    0.0000 N   0  0  0  0  0  0  0  0  0  0  0  0
   10.6603    2.7500    0.0000 C   0  0  0  0  0  0  0  0  0  0  0  0
   10.6603    1.7500    0.0000 C   0  0  0  0  0  0  0  0  0  0  0  0
    9.7942    0.2500    0.0000 C   0  0  0  0  0  0  0  0  0  0  0  0
    8.9282   -0.2500    0.0000 C   0  0  0  0  0  0  0  0  0  0  0  0
    7.1962   -1.2500    0.0000 C   0  0  0  0  0  0  0  0  0  0  0  0
    8.9282   -1.2500    0.0000 C   0  0  0  0  0  0  0  0  0  0  0  0
    6.3301   -1.7500    0.0000 C   0  0  0  0  0  0  0  0  0  0  0  0
    8.0622    0.2500    0.0000 C   0  0  0  0  0  0  0  0  0  0  0  0
    7.1962   -0.2500    0.0000 C   0  0  0  0  0  0  0  0  0  0  0  0
    5.4641   -3.2500    0.0000 C   0  0  0  0  0  0  0  0  0  0  0  0
    6.3301   -2.7500    0.0000 C   0  0  0  0  0  0  0  0  0  0  0  0
    5.4641   -1.2500    0.0000 C   0  0  0  0  0  0  0  0  0  0  0  0
    4.5981   -4.7500    0.0000 C   0  0  0  0  0  0  0  0  0  0  0  0
    4.5981   -2.7500    0.0000 C   0  0  0  0  0  0  0  0  0  0  0  0
    4.5981   -1.7500    0.0000 C   0  0  0  0  0  0  0  0  0  0  0  0
    6.3301   -4.7500    0.0000 C   0  0  0  0  0  0  0  0  0  0  0  0
    3.7320   -4.2500    0.0000 C   0  0  0  0  0  0  0  0  0  0  0  0
  1 17  1  0  0  0  0 
  2  7  1  0  0  0  0 
  2  8  1  0  0  0  0 
  3 10  1  0  0  0  0 
  3 11  1  0  0  0  0 
  4 15  1  0  0  0  0 
  4 18  1  0  0  0  0 
  4 21  1  0  0  0  0 
  5 11  1  0  0  0  0 
  6  7  1  0  0  0  0 
  8  9  1  0  0  0  0 
  9 11  1  0  0  0  0 
  9 13  1  0  0  0  0 
 10 12  1  0  0  0  0 
 10 14  1  0  0  0  0 
 12 16  1  0  0  0  0 
 12 17  1  0  0  0  0 
 13 14  1  0  0  0  0 
 15 16  1  0  0  0  0 
 15 19  1  0  0  0  0 
 17 20  1  0  0  0  0 
 18 22  1  0  0  0  0 
 19 20  1  0  0  0  0 
M  END
> <PUBCHEM_COMPOUND_CID>
11569483

$$$$
