48875331
  CDK     0202151413

 42 44  0  0  0  0  0  0  0  0999 V2000
    2.0000   -5.2578    0.0000 Br  0  0  0  0  0  0  0  0  0  0  0  0
    2.9230   -1.6700    0.0000 S   0  0  0  0  0  0  0  0  0  0  0  0
    3.4186    1.1082    0.0000 O   0  0  0  0  0  0  0  0  0  0  0  0
    5.0009    1.8126    0.0000 N   0  0  0  0  0  0  0  0  0  0  0  0
    4.5411   -1.6700    0.0000 N   0  0  0  0  0  0  0  0  0  0  0  0
    5.1819    3.5352    0.0000 C   0  0  3  0  0  0  0  0  0  0  0  0
    6.1765    3.4307    0.0000 C   0  0  0  0  0  0  0  0  0  0  0  0
    4.7752    4.4488    0.0000 C   0  0  0  0  0  0  0  0  0  0  0  0
    4.5942    2.7262    0.0000 C   0  0  0  0  0  0  0  0  0  0  0  0
    6.7642    4.2397    0.0000 C   0  0  0  0  0  0  0  0  0  0  0  0
    5.3630    5.2578    0.0000 C   0  0  0  0  0  0  0  0  0  0  0  0
    6.3575    5.1532    0.0000 C   0  0  0  0  0  0  0  0  0  0  0  0
    4.4131    1.0036    0.0000 C   0  0  0  0  0  0  0  0  0  0  0  0
    4.8198    0.0901    0.0000 C   0  0  0  0  0  0  0  0  0  0  0  0
    4.2320   -0.7189    0.0000 C   0  0  0  0  0  0  0  0  0  0  0  0
    3.2320   -0.7189    0.0000 C   0  0  0  0  0  0  0  0  0  0  0  0
    3.7320   -2.2578    0.0000 C   0  0  0  0  0  0  0  0  0  0  0  0
    3.7320   -3.2578    0.0000 C   0  0  0  0  0  0  0  0  0  0  0  0
    2.8660   -3.7578    0.0000 C   0  0  0  0  0  0  0  0  0  0  0  0
    4.5981   -3.7578    0.0000 C   0  0  0  0  0  0  0  0  0  0  0  0
    2.8660   -4.7578    0.0000 C   0  0  0  0  0  0  0  0  0  0  0  0
    4.5981   -4.7578    0.0000 C   0  0  0  0  0  0  0  0  0  0  0  0
    3.7320   -5.2578    0.0000 C   0  0  0  0  0  0  0  0  0  0  0  0
    5.4341    2.9688    0.0000 H   0  0  0  0  0  0  0  0  0  0  0  0
    6.0056    2.8347    0.0000 H   0  0  0  0  0  0  0  0  0  0  0  0
    6.7337    3.1589    0.0000 H   0  0  0  0  0  0  0  0  0  0  0  0
    4.3445    4.8948    0.0000 H   0  0  0  0  0  0  0  0  0  0  0  0
    4.2612    4.1021    0.0000 H   0  0  0  0  0  0  0  0  0  0  0  0
    4.1635    3.1722    0.0000 H   0  0  0  0  0  0  0  0  0  0  0  0
    4.0801    2.3795    0.0000 H   0  0  0  0  0  0  0  0  0  0  0  0
    7.1949    3.7937    0.0000 H   0  0  0  0  0  0  0  0  0  0  0  0
    7.2782    4.5864    0.0000 H   0  0  0  0  0  0  0  0  0  0  0  0
    5.1108    5.8242    0.0000 H   0  0  0  0  0  0  0  0  0  0  0  0
    6.7219    5.6548    0.0000 H   0  0  0  0  0  0  0  0  0  0  0  0
    5.6175    1.7478    0.0000 H   0  0  0  0  0  0  0  0  0  0  0  0
    5.2505   -0.3559    0.0000 H   0  0  0  0  0  0  0  0  0  0  0  0
    5.3338    0.4368    0.0000 H   0  0  0  0  0  0  0  0  0  0  0  0
    2.8676   -0.2173    0.0000 H   0  0  0  0  0  0  0  0  0  0  0  0
    2.3291   -3.4478    0.0000 H   0  0  0  0  0  0  0  0  0  0  0  0
    5.1350   -3.4478    0.0000 H   0  0  0  0  0  0  0  0  0  0  0  0
    5.1350   -5.0678    0.0000 H   0  0  0  0  0  0  0  0  0  0  0  0
    3.7320   -5.8778    0.0000 H   0  0  0  0  0  0  0  0  0  0  0  0
  1 21  1  0  0  0  0 
  2 16  1  0  0  0  0 
  2 17  1  0  0  0  0 
  3 13  2  0  0  0  0 
  4  9  1  0  0  0  0 
  4 13  1  0  0  0  0 
  4 35  1  0  0  0  0 
  5 15  1  0  0  0  0 
  5 17  2  0  0  0  0 
  6  7  1  0  0  0  0 
  6  8  1  0  0  0  0 
  6  9  1  0  0  0  0 
  6 24  1  0  0  0  0 
  7 10  1  0  0  0  0 
  7 25  1  0  0  0  0 
  7 26  1  0  0  0  0 
  8 11  1  0  0  0  0 
  8 27  1  0  0  0  0 
  8 28  1  0  0  0  0 
  9 29  1  0  0  0  0 
  9 30  1  0  0  0  0 
 10 12  1  0  0  0  0 
 10 31  1  0  0  0  0 
 10 32  1  0  0  0  0 
 11 12  2  0  0  0  0 
 11 33  1  0  0  0  0 
 12 34  1  0  0  0  0 
 13 14  1  0  0  0  0 
 14 15  1  0  0  0  0 
 14 36  1  0  0  0  0 
 14 37  1  0  0  0  0 
 15 16  2  0  0  0  0 
 16 38  1  0  0  0  0 
 17 18  1  0  0  0  0 
 18 19  2  0  0  0  0 
 18 20  1  0  0  0  0 
 19 21  1  0  0  0  0 
 19 39  1  0  0  0  0 
 20 22  2  0  0  0  0 
 20 40  1  0  0  0  0 
 21 23  2  0  0  0  0 
 22 23  1  0  0  0  0 
 22 41  1  0  0  0  0 
 23 42  1  0  0  0  0 
M  END
> <cdk:Title>
48875331

> <cdk:Remark>
null

> <PUBCHEM_COMPOUND_CID>
48875331

> <PUBCHEM_COMPOUND_CANONICALIZED>
1

> <PUBCHEM_CACTVS_COMPLEXITY>
431

> <PUBCHEM_CACTVS_HBOND_ACCEPTOR>
3

> <PUBCHEM_CACTVS_HBOND_DONOR>
1

> <PUBCHEM_CACTVS_ROTATABLE_BOND>
5

> <PUBCHEM_CACTVS_SUBSKEYS>
AAADceB7IABAEAAAAAAAAAAAAAAAAWAAAAAwQAAAAAAAAAABwAAAHgRQAAABrQjF3gSwgZLIEAisAyVyVACC8KBhCjwIiLU4JLgIILqg1RGEIAhglgCoihcQgAAOAAAAEAAAAAAAAAAgAAAAAAAAAAAAAA==

> <PUBCHEM_IUPAC_OPENEYE_NAME>
2-[2-(3-bromophenyl)thiazol-4-yl]-N-(cyclohex-3-en-1-ylmethyl)acetamide

> <PUBCHEM_IUPAC_CAS_NAME>
2-[2-(3-bromophenyl)-4-thiazolyl]-N-(1-cyclohex-3-enylmethyl)acetamide

> <PUBCHEM_IUPAC_NAME>
2-[2-(3-bromophenyl)-1,3-thiazol-4-yl]-N-(cyclohex-3-en-1-ylmethyl)acetamide

> <PUBCHEM_IUPAC_SYSTEMATIC_NAME>
2-[2-(3-bromophenyl)-1,3-thiazol-4-yl]-N-(cyclohex-3-en-1-ylmethyl)ethanamide

> <PUBCHEM_IUPAC_TRADITIONAL_NAME>
2-[2-(3-bromophenyl)thiazol-4-yl]-N-(cyclohex-3-en-1-ylmethyl)acetamide

> <PUBCHEM_IUPAC_INCHI>
InChI=1S/C18H19BrN2OS/c19-15-8-4-7-14(9-15)18-21-16(12-23-18)10-17(22)20-11-13-5-2-1-3-6-13/h1-2,4,7-9,12-13H,3,5-6,10-11H2,(H,20,22)

> <PUBCHEM_IUPAC_INCHIKEY>
KSGZJVCTDHKRKL-UHFFFAOYSA-N

> <PUBCHEM_XLOGP3_AA>
4.3

> <PUBCHEM_EXACT_MASS>
390.040146

> <PUBCHEM_MOLECULAR_FORMULA>
C18H19BrN2OS

> <PUBCHEM_MOLECULAR_WEIGHT>
391.32526

> <PUBCHEM_OPENEYE_CAN_SMILES>
C1CC(CC=C1)CNC(=O)CC2=CSC(=N2)C3=CC(=CC=C3)Br

> <PUBCHEM_OPENEYE_ISO_SMILES>
C1CC(CC=C1)CNC(=O)CC2=CSC(=N2)C3=CC(=CC=C3)Br

> <PUBCHEM_CACTVS_TPSA>
70.2

> <PUBCHEM_MONOISOTOPIC_WEIGHT>
390.040146

> <PUBCHEM_TOTAL_CHARGE>
0

> <PUBCHEM_HEAVY_ATOM_COUNT>
23

> <PUBCHEM_ATOM_DEF_STEREO_COUNT>
0

> <PUBCHEM_ATOM_UDEF_STEREO_COUNT>
1

> <PUBCHEM_BOND_DEF_STEREO_COUNT>
0

> <PUBCHEM_BOND_UDEF_STEREO_COUNT>
0

> <PUBCHEM_ISOTOPIC_ATOM_COUNT>
0

> <PUBCHEM_COMPONENT_COUNT>
1

> <PUBCHEM_CACTVS_TAUTO_COUNT>
2

> <PUBCHEM_COORDINATE_TYPE>
1

> <PUBCHEM_BONDANNOTATIONS>
15  16  8

$$$$
48875331
  CDK     0202151413

 42 44  0  0  0  0  0  0  0  0999 V2000
    2.0000   -5.2578    0.0000 Br  0  0  0  0  0  0  0  0  0  0  0  0
    2.9230   -1.6700    0.0000 S   0  0  0  0  0  0  0  0  0  0  0  0
    3.4186    1.1082    0.0000 O   0  0  0  0  0  0  0  0  0  0  0  0
    5.0009    1.8126    0.0000 N   0  0  0  0  0  0  0  0  0  0  0  0
    4.5411   -1.6700    0.0000 N   0  0  0  0  0  0  0  0  0  0  0  0
    5.1819    3.5352    0.0000 C   0  0  3  0  0  0  0  0  0  0  0  0
    6.1765    3.4307    0.0000 C   0  0  0  0  0  0  0  0  0  0  0  0
    4.7752    4.4488    0.0000 C   0  0  0  0  0  0  0  0  0  0  0  0
    4.5942    2.7262    0.0000 C   0  0  0  0  0  0  0  0  0  0  0  0
    6.7642    4.2397    0.0000 C   0  0  0  0  0  0  0  0  0  0  0  0
    5.3630    5.2578    0.0000 C   0  0  0  0  0  0  0  0  0  0  0  0
    6.3575    5.1532    0.0000 C   0  0  0  0  0  0  0  0  0  0  0  0
    4.4131    1.0036    0.0000 C   0  0  0  0  0  0  0  0  0  0  0  0
    4.8198    0.0901    0.0000 C   0  0  0  0  0  0  0  0  0  0  0  0
    4.2320   -0.7189    0.0000 C   0  0  0  0  0  0  0  0  0  0  0  0
    3.2320   -0.7189    0.0000 C   0  0  0  0  0  0  0  0  0  0  0  0
    3.7320   -2.2578    0.0000 C   0  0  0  0  0  0  0  0  0  0  0  0
    3.7320   -3.2578    0.0000 C   0  0  0  0  0  0  0  0  0  0  0  0
    2.8660   -3.7578    0.0000 C   0  0  0  0  0  0  0  0  0  0  0  0
    4.5981   -3.7578    0.0000 C   0  0  0  0  0  0  0  0  0  0  0  0
    2.8660   -4.7578    0.0000 C   0  0  0  0  0  0  0  0  0  0  0  0
    4.5981   -4.7578    0.0000 C   0  0  0  0  0  0  0  0  0  0  0  0
    3.7320   -5.2578    0.0000 C   0  0  0  0  0  0  0  0  0  0  0  0
    5.4341    2.9688    0.0000 H   0  0  0  0  0  0  0  0  0  0  0  0
    6.0056    2.8347    0.0000 H   0  0  0  0  0  0  0  0  0  0  0  0
    6.7337    3.1589    0.0000 H   0  0  0  0  0  0  0  0  0  0  0  0
    4.3445    4.8948    0.0000 H   0  0  0  0  0  0  0  0  0  0  0  0
    4.2612    4.1021    0.0000 H   0  0  0  0  0  0  0  0  0  0  0  0
    4.1635    3.1722    0.0000 H   0  0  0  0  0  0  0  0  0  0  0  0
    4.0801    2.3795    0.0000 H   0  0  0  0  0  0  0  0  0  0  0  0
    7.1949    3.7937    0.0000 H   0  0  0  0  0  0  0  0  0  0  0  0
    7.2782    4.5864    0.0000 H   0  0  0  0  0  0  0  0  0  0  0  0
    5.1108    5.8242    0.0000 H   0  0  0  0  0  0  0  0  0  0  0  0
    6.7219    5.6548    0.0000 H   0  0  0  0  0  0  0  0  0  0  0  0
    5.6175    1.7478    0.0000 H   0  0  0  0  0  0  0  0  0  0  0  0
    5.2505   -0.3559    0.0000 H   0  0  0  0  0  0  0  0  0  0  0  0
    5.3338    0.4368    0.0000 H   0  0  0  0  0  0  0  0  0  0  0  0
    2.8676   -0.2173    0.0000 H   0  0  0  0  0  0  0  0  0  0  0  0
    2.3291   -3.4478    0.0000 H   0  0  0  0  0  0  0  0  0  0  0  0
    5.1350   -3.4478    0.0000 H   0  0  0  0  0  0  0  0  0  0  0  0
    5.1350   -5.0678    0.0000 H   0  0  0  0  0  0  0  0  0  0  0  0
    3.7320   -5.8778    0.0000 H   0  0  0  0  0  0  0  0  0  0  0  0
  1 21  1  0  0  0  0 
  2 16  1  0  0  0  0 
  2 17  1  0  0  0  0 
  3 13  2  0  0  0  0 
  4  9  1  0  0  0  0 
  4 13  1  0  0  0  0 
  4 35  1  0  0  0  0 
  5 15  1  0  0  0  0 
  5 17  2  0  0  0  0 
  6  7  1  0  0  0  0 
  6  8  1  0  0  0  0 
  6  9  1  0  0  0  0 
  6 24  1  0  0  0  0 
  7 10  1  0  0  0  0 
  7 25  1  0  0  0  0 
  7 26  1  0  0  0  0 
  8 11  1  0  0  0  0 
  8 27  1  0  0  0  0 
  8 28  1  0  0  0  0 
  9 29  1  0  0  0  0 
  9 30  1  0  0  0  0 
 10 12  1  0  0  0  0 
 10 31  1  0  0  0  0 
 10 32  1  0  0  0  0 
 11 12  2  0  0  0  0 
 11 33  1  0  0  0  0 
 12 34  1  0  0  0  0 
 13 14  1  0  0  0  0 
 14 15  1  0  0  0  0 
 14 36  1  0  0  0  0 
 14 37  1  0  0  0  0 
 15 16  2  0  0  0  0 
 16 38  1  0  0  0  0 
 17 18  1  0  0  0  0 
 18 19  2  0  0  0  0 
 18 20  1  0  0  0  0 
 19 21  1  0  0  0  0 
 19 39  1  0  0  0  0 
 20 22  2  0  0  0  0 
 20 40  1  0  0  0  0 
 21 23  2  0  0  0  0 
 22 23  1  0  0  0  0 
 22 41  1  0  0  0  0 
 23 42  1  0  0  0  0 
M  END
> <cdk:Title>
48875331

> <cdk:Remark>
null

> <PUBCHEM_COMPOUND_CID>
48875331

> <PUBCHEM_COMPOUND_CANONICALIZED>
1

> <PUBCHEM_CACTVS_COMPLEXITY>
431

> <PUBCHEM_CACTVS_HBOND_ACCEPTOR>
3

> <PUBCHEM_CACTVS_HBOND_DONOR>
1

> <PUBCHEM_CACTVS_ROTATABLE_BOND>
5

> <PUBCHEM_CACTVS_SUBSKEYS>
AAADceB7IABAEAAAAAAAAAAAAAAAAWAAAAAwQAAAAAAAAAABwAAAHgRQAAABrQjF3gSwgZLIEAisAyVyVACC8KBhCjwIiLU4JLgIILqg1RGEIAhglgCoihcQgAAOAAAAEAAAAAAAAAAgAAAAAAAAAAAAAA==

> <PUBCHEM_IUPAC_OPENEYE_NAME>
2-[2-(3-bromophenyl)thiazol-4-yl]-N-(cyclohex-3-en-1-ylmethyl)acetamide

> <PUBCHEM_IUPAC_CAS_NAME>
2-[2-(3-bromophenyl)-4-thiazolyl]-N-(1-cyclohex-3-enylmethyl)acetamide

> <PUBCHEM_IUPAC_NAME>
2-[2-(3-bromophenyl)-1,3-thiazol-4-yl]-N-(cyclohex-3-en-1-ylmethyl)acetamide

> <PUBCHEM_IUPAC_SYSTEMATIC_NAME>
2-[2-(3-bromophenyl)-1,3-thiazol-4-yl]-N-(cyclohex-3-en-1-ylmethyl)ethanamide

> <PUBCHEM_IUPAC_TRADITIONAL_NAME>
2-[2-(3-bromophenyl)thiazol-4-yl]-N-(cyclohex-3-en-1-ylmethyl)acetamide

> <PUBCHEM_IUPAC_INCHI>
InChI=1S/C18H19BrN2OS/c19-15-8-4-7-14(9-15)18-21-16(12-23-18)10-17(22)20-11-13-5-2-1-3-6-13/h1-2,4,7-9,12-13H,3,5-6,10-11H2,(H,20,22)

> <PUBCHEM_IUPAC_INCHIKEY>
KSGZJVCTDHKRKL-UHFFFAOYSA-N

> <PUBCHEM_XLOGP3_AA>
4.3

> <PUBCHEM_EXACT_MASS>
390.040146

> <PUBCHEM_MOLECULAR_FORMULA>
C18H19BrN2OS

> <PUBCHEM_MOLECULAR_WEIGHT>
391.32526

> <PUBCHEM_OPENEYE_CAN_SMILES>
C1CC(CC=C1)CNC(=O)CC2=CSC(=N2)C3=CC(=CC=C3)Br

> <PUBCHEM_OPENEYE_ISO_SMILES>
C1CC(CC=C1)CNC(=O)CC2=CSC(=N2)C3=CC(=CC=C3)Br

> <PUBCHEM_CACTVS_TPSA>
70.2

> <PUBCHEM_MONOISOTOPIC_WEIGHT>
390.040146

> <PUBCHEM_TOTAL_CHARGE>
0

> <PUBCHEM_HEAVY_ATOM_COUNT>
23

> <PUBCHEM_ATOM_DEF_STEREO_COUNT>
0

> <PUBCHEM_ATOM_UDEF_STEREO_COUNT>
1

> <PUBCHEM_BOND_DEF_STEREO_COUNT>
0

> <PUBCHEM_BOND_UDEF_STEREO_COUNT>
0

> <PUBCHEM_ISOTOPIC_ATOM_COUNT>
0

> <PUBCHEM_COMPONENT_COUNT>
1

> <PUBCHEM_CACTVS_TAUTO_COUNT>
2

> <PUBCHEM_COORDINATE_TYPE>
1

> <PUBCHEM_BONDANNOTATIONS>
15  16  8

$$$$
