
  CDK     1227140956

 27 30  0  0  0  0  0  0  0  0999 V2000
    9.1671    2.2561    0.0000 O   0  0  0  0  0  0  0  0  0  0  0  0
    6.2781   -1.0079    0.0000 N   0  0  0  0  0  0  0  0  0  0  0  0
    4.6783   -4.7246    0.0000 N   0  0  0  0  0  0  0  0  0  0  0  0
    5.9674   -1.9584    0.0000 C   0  0  0  0  0  0  0  0  0  0  0  0
    4.9889   -2.1646    0.0000 C   0  0  0  0  0  0  0  0  0  0  0  0
    4.6783   -3.1151    0.0000 C   0  0  0  0  0  0  0  0  0  0  0  0
    6.5888   -0.0573    0.0000 C   0  0  0  0  0  0  0  0  0  0  0  0
    3.7320   -3.4199    0.0000 C   0  0  0  0  0  0  0  0  0  0  0  0
    3.7320   -4.4199    0.0000 C   0  0  0  0  0  0  0  0  0  0  0  0
    5.2619   -3.9199    0.0000 C   0  0  0  0  0  0  0  0  0  0  0  0
    7.5673    0.1489    0.0000 C   0  0  0  0  0  0  0  0  0  0  0  0
    2.8660   -2.9199    0.0000 C   0  0  0  0  0  0  0  0  0  0  0  0
    2.8660   -4.9199    0.0000 C   0  0  0  0  0  0  0  0  0  0  0  0
    7.8779    1.0994    0.0000 C   0  0  0  0  0  0  0  0  0  0  0  0
    8.2351   -0.5954    0.0000 C   0  0  0  0  0  0  0  0  0  0  0  0
    2.0000   -3.4199    0.0000 C   0  0  0  0  0  0  0  0  0  0  0  0
    2.0000   -4.4199    0.0000 C   0  0  0  0  0  0  0  0  0  0  0  0
    8.8564    1.3056    0.0000 C   0  0  0  0  0  0  0  0  0  0  0  0
    9.2136   -0.3892    0.0000 C   0  0  0  0  0  0  0  0  0  0  0  0
    9.5243    0.5613    0.0000 C   0  0  0  0  0  0  0  0  0  0  0  0
   10.1456    2.4623    0.0000 C   0  0  0  0  0  0  0  0  0  0  0  0
   10.4563    3.4129    0.0000 C   0  0  0  0  0  0  0  0  0  0  0  0
   11.4348    3.6191    0.0000 C   0  0  0  0  0  0  0  0  0  0  0  0
    9.7884    4.1572    0.0000 C   0  0  0  0  0  0  0  0  0  0  0  0
   11.7454    4.5696    0.0000 C   0  0  0  0  0  0  0  0  0  0  0  0
   10.0991    5.1077    0.0000 C   0  0  0  0  0  0  0  0  0  0  0  0
   11.0776    5.3139    0.0000 C   0  0  0  0  0  0  0  0  0  0  0  0
  1 18  1  0  0  0  0 
  1 21  1  0  0  0  0 
  2  4  1  0  0  0  0 
  2  7  1  0  0  0  0 
  3  9  1  0  0  0  0 
  3 10  1  0  0  0  0 
  4  5  1  0  0  0  0 
  5  6  1  0  0  0  0 
  6  8  1  0  0  0  0 
  6 10  1  0  0  0  0 
  7 11  1  0  0  0  0 
  8  9  1  0  0  0  0 
  8 12  1  0  0  0  0 
  9 13  1  0  0  0  0 
 11 14  1  0  0  0  0 
 11 15  1  0  0  0  0 
 12 16  1  0  0  0  0 
 13 17  1  0  0  0  0 
 14 18  1  0  0  0  0 
 15 19  1  0  0  0  0 
 16 17  1  0  0  0  0 
 18 20  1  0  0  0  0 
 19 20  1  0  0  0  0 
 21 22  1  0  0  0  0 
 22 23  1  0  0  0  0 
 22 24  1  0  0  0  0 
 23 25  1  0  0  0  0 
 24 26  1  0  0  0  0 
 25 27  1  0  0  0  0 
 26 27  1  0  0  0  0 
M  CHG  1   2   1
M  END
> <PUBCHEM_COMPOUND_CID>
27137867

$$$$

  CDK     1227140956

 27 30  0  0  0  0  0  0  0  0999 V2000
    8.8005    1.0562    0.0000 O   0  0  0  0  0  0  0  0  0  0  0  0
    6.2024   -0.4439    0.0000 N   0  0  0  0  0  0  0  0  0  0  0  0
   11.3986    2.5562    0.0000 N   0  0  0  0  0  0  0  0  0  0  0  0
    3.2024   -2.1759    0.0000 N   0  0  0  0  0  0  0  0  0  0  0  0
    2.2079   -2.2804    0.0000 N   0  0  0  0  0  0  0  0  0  0  0  0
    7.0685   -0.9439    0.0000 C   0  0  0  0  0  0  0  0  0  0  0  0
    6.2024    0.5561    0.0000 C   0  0  0  0  0  0  0  0  0  0  0  0
    7.9345    0.5561    0.0000 C   0  0  0  0  0  0  0  0  0  0  0  0
    7.0685    1.0562    0.0000 C   0  0  0  0  0  0  0  0  0  0  0  0
    7.9345   -0.4439    0.0000 C   0  0  0  0  0  0  0  0  0  0  0  0
    5.2024   -0.4439    0.0000 C   0  0  0  0  0  0  0  0  0  0  0  0
    4.7024   -1.3099    0.0000 C   0  0  0  0  0  0  0  0  0  0  0  0
    3.7024   -1.3099    0.0000 C   0  0  0  0  0  0  0  0  0  0  0  0
    9.6665    0.5561    0.0000 C   0  0  0  0  0  0  0  0  0  0  0  0
   12.3121    2.1494    0.0000 C   0  0  0  0  0  0  0  0  0  0  0  0
   11.5031    3.5507    0.0000 C   0  0  0  0  0  0  0  0  0  0  0  0
   12.4813    3.7586    0.0000 C   0  0  0  0  0  0  0  0  0  0  0  0
   12.9813    2.8926    0.0000 C   0  0  0  0  0  0  0  0  0  0  0  0
   10.5326    1.0562    0.0000 C   0  0  0  0  0  0  0  0  0  0  0  0
   10.5326    2.0562    0.0000 C   0  0  0  0  0  0  0  0  0  0  0  0
    9.6665   -0.4439    0.0000 C   0  0  0  0  0  0  0  0  0  0  0  0
   11.3986    0.5561    0.0000 C   0  0  0  0  0  0  0  0  0  0  0  0
   10.5326   -0.9439    0.0000 C   0  0  0  0  0  0  0  0  0  0  0  0
    3.6092   -3.0894    0.0000 C   0  0  0  0  0  0  0  0  0  0  0  0
   11.3986   -0.4439    0.0000 C   0  0  0  0  0  0  0  0  0  0  0  0
    2.8660   -3.7586    0.0000 C   0  0  0  0  0  0  0  0  0  0  0  0
    2.0000   -3.2586    0.0000 C   0  0  0  0  0  0  0  0  0  0  0  0
  1  8  1  0  0  0  0 
  1 14  1  0  0  0  0 
  2  6  1  0  0  0  0 
  2  7  1  0  0  0  0 
  2 11  1  0  0  0  0 
  3 15  1  0  0  0  0 
  3 16  1  0  0  0  0 
  3 20  1  0  0  0  0 
  4  5  1  0  0  0  0 
  4 13  1  0  0  0  0 
  4 24  1  0  0  0  0 
  5 27  1  0  0  0  0 
  6 10  1  0  0  0  0 
  7  9  1  0  0  0  0 
  8  9  1  0  0  0  0 
  8 10  1  0  0  0  0 
 11 12  1  0  0  0  0 
 12 13  1  0  0  0  0 
 14 19  1  0  0  0  0 
 14 21  1  0  0  0  0 
 15 18  1  0  0  0  0 
 16 17  1  0  0  0  0 
 17 18  1  0  0  0  0 
 19 20  1  0  0  0  0 
 19 22  1  0  0  0  0 
 21 23  1  0  0  0  0 
 22 25  1  0  0  0  0 
 23 25  1  0  0  0  0 
 24 26  1  0  0  0  0 
 26 27  1  0  0  0  0 
M  CHG  1   2   1
M  END
> <PUBCHEM_COMPOUND_CID>
42395249

$$$$
