19502787
  CDK     1229141458

 45 47  0  0  0  0  0  0  0  0999 V2000
    7.6698    1.1092    0.0000 O   0  0  0  0  0  0  0  0  0  0  0  0
   11.7980    2.5999    0.0000 O   0  0  0  0  0  0  0  0  0  0  0  0
   10.9320    1.0999    0.0000 O   0  0  0  0  0  0  0  0  0  0  0  0
    4.5981   -0.3023    0.0000 N   0  0  0  0  0  0  0  0  0  0  0  0
    4.7026    0.6922    0.0000 N   0  0  0  0  0  0  0  0  0  0  0  0
    6.0875    1.8137    0.0000 N   0  0  0  0  0  0  0  0  0  0  0  0
    8.4833    2.9363    0.0000 N   0  0  0  0  0  0  0  0  0  0  0  0
    8.9833    3.8023    0.0000 N   0  0  0  0  0  0  0  0  0  0  0  0
    3.7320   -0.8023    0.0000 C   0  0  0  0  0  0  0  0  0  0  0  0
    5.5116   -0.7090    0.0000 C   0  0  0  0  0  0  0  0  0  0  0  0
    3.7320   -1.8023    0.0000 C   0  0  0  0  0  0  0  0  0  0  0  0
    5.6808    0.9001    0.0000 C   0  0  0  0  0  0  0  0  0  0  0  0
    6.1808    0.0341    0.0000 C   0  0  0  0  0  0  0  0  0  0  0  0
    2.8660   -2.3023    0.0000 C   0  0  0  0  0  0  0  0  0  0  0  0
    5.7195   -1.6872    0.0000 C   0  0  0  0  0  0  0  0  0  0  0  0
    4.5981   -2.3023    0.0000 C   0  0  0  0  0  0  0  0  0  0  0  0
    2.8660   -3.3023    0.0000 C   0  0  0  0  0  0  0  0  0  0  0  0
    7.4888    2.8318    0.0000 C   0  0  0  0  0  0  0  0  0  0  0  0
    7.0820    1.9182    0.0000 C   0  0  0  0  0  0  0  0  0  0  0  0
    4.5981   -3.3023    0.0000 C   0  0  0  0  0  0  0  0  0  0  0  0
    3.7320   -3.8023    0.0000 C   0  0  0  0  0  0  0  0  0  0  0  0
    2.0000   -3.8023    0.0000 C   0  0  0  0  0  0  0  0  0  0  0  0
    9.1524    2.1931    0.0000 C   0  0  0  0  0  0  0  0  0  0  0  0
   10.0659    2.5999    0.0000 C   0  0  0  0  0  0  0  0  0  0  0  0
    9.9614    3.5944    0.0000 C   0  0  0  0  0  0  0  0  0  0  0  0
   10.9320    2.0999    0.0000 C   0  0  0  0  0  0  0  0  0  0  0  0
    3.5200   -0.2197    0.0000 H   0  0  0  0  0  0  0  0  0  0  0  0
    3.1215   -0.9100    0.0000 H   0  0  0  0  0  0  0  0  0  0  0  0
    6.7974   -0.0307    0.0000 H   0  0  0  0  0  0  0  0  0  0  0  0
    2.3291   -1.9923    0.0000 H   0  0  0  0  0  0  0  0  0  0  0  0
    5.1131   -1.8161    0.0000 H   0  0  0  0  0  0  0  0  0  0  0  0
    5.8484   -2.2936    0.0000 H   0  0  0  0  0  0  0  0  0  0  0  0
    6.3260   -1.5583    0.0000 H   0  0  0  0  0  0  0  0  0  0  0  0
    5.1350   -1.9923    0.0000 H   0  0  0  0  0  0  0  0  0  0  0  0
    5.7231    2.3153    0.0000 H   0  0  0  0  0  0  0  0  0  0  0  0
    7.5320    3.4502    0.0000 H   0  0  0  0  0  0  0  0  0  0  0  0
    6.8872    2.9817    0.0000 H   0  0  0  0  0  0  0  0  0  0  0  0
    5.1350   -3.6123    0.0000 H   0  0  0  0  0  0  0  0  0  0  0  0
    3.7320   -4.4223    0.0000 H   0  0  0  0  0  0  0  0  0  0  0  0
    1.6900   -3.2654    0.0000 H   0  0  0  0  0  0  0  0  0  0  0  0
    1.4631   -4.1123    0.0000 H   0  0  0  0  0  0  0  0  0  0  0  0
    2.3100   -4.3392    0.0000 H   0  0  0  0  0  0  0  0  0  0  0  0
    9.0235    1.5867    0.0000 H   0  0  0  0  0  0  0  0  0  0  0  0
   10.4222    4.0092    0.0000 H   0  0  0  0  0  0  0  0  0  0  0  0
   12.3349    2.2899    0.0000 H   0  0  0  0  0  0  0  0  0  0  0  0
  1 19  2  0  0  0  0 
  2 26  1  0  0  0  0 
  2 45  1  0  0  0  0 
  3 26  2  0  0  0  0 
  4  5  1  0  0  0  0 
  4  9  1  0  0  0  0 
  4 10  1  0  0  0  0 
  5 12  2  0  0  0  0 
  6 12  1  0  0  0  0 
  6 19  1  0  0  0  0 
  6 35  1  0  0  0  0 
  7  8  1  0  0  0  0 
  7 18  1  0  0  0  0 
  7 23  1  0  0  0  0 
  8 25  2  0  0  0  0 
  9 11  1  0  0  0  0 
  9 27  1  0  0  0  0 
  9 28  1  0  0  0  0 
 10 13  2  0  0  0  0 
 10 15  1  0  0  0  0 
 11 14  1  0  0  0  0 
 11 16  2  0  0  0  0 
 12 13  1  0  0  0  0 
 13 29  1  0  0  0  0 
 14 17  2  0  0  0  0 
 14 30  1  0  0  0  0 
 15 31  1  0  0  0  0 
 15 32  1  0  0  0  0 
 15 33  1  0  0  0  0 
 16 20  1  0  0  0  0 
 16 34  1  0  0  0  0 
 17 21  1  0  0  0  0 
 17 22  1  0  0  0  0 
 18 19  1  0  0  0  0 
 18 36  1  0  0  0  0 
 18 37  1  0  0  0  0 
 20 21  2  0  0  0  0 
 20 38  1  0  0  0  0 
 21 39  1  0  0  0  0 
 22 40  1  0  0  0  0 
 22 41  1  0  0  0  0 
 22 42  1  0  0  0  0 
 23 24  2  0  0  0  0 
 23 43  1  0  0  0  0 
 24 25  1  0  0  0  0 
 24 26  1  0  0  0  0 
 25 44  1  0  0  0  0 
M  END
> <cdk:Title>
19502787

> <cdk:Remark>
null

> <PUBCHEM_COMPOUND_CID>
19502787

> <PUBCHEM_COMPOUND_CANONICALIZED>
1

> <PUBCHEM_CACTVS_COMPLEXITY>
517

> <PUBCHEM_CACTVS_HBOND_ACCEPTOR>
5

> <PUBCHEM_CACTVS_HBOND_DONOR>
2

> <PUBCHEM_CACTVS_ROTATABLE_BOND>
6

> <PUBCHEM_CACTVS_SUBSKEYS>
AAADceB7sAAAAAAAAAAAAAAAAAAAAWLAAAAwAAAAAAAAAAAB8AAAHgAYCAAADAjBngQ/uJLIAgCqAzf3fACSBAI1ggAd2CG4bNiIZKrA2fGU5IhynQLI2McQgEAOAAACAAAAAAAAAAQAAAAAAAAAAAAAAA==

> <PUBCHEM_IUPAC_OPENEYE_NAME>
1-[2-[[5-methyl-1-(m-tolylmethyl)pyrazol-3-yl]amino]-2-oxo-ethyl]pyrazole-4-carboxylic acid

> <PUBCHEM_IUPAC_CAS_NAME>
1-[2-[[5-methyl-1-[(3-methylphenyl)methyl]-3-pyrazolyl]amino]-2-oxoethyl]-4-pyrazolecarboxylic acid

> <PUBCHEM_IUPAC_NAME>
1-[2-[[5-methyl-1-[(3-methylphenyl)methyl]pyrazol-3-yl]amino]-2-oxoethyl]pyrazole-4-carboxylic acid

> <PUBCHEM_IUPAC_SYSTEMATIC_NAME>
1-[2-[[5-methyl-1-[(3-methylphenyl)methyl]pyrazol-3-yl]amino]-2-oxidanylidene-ethyl]pyrazole-4-carboxylic acid

> <PUBCHEM_IUPAC_TRADITIONAL_NAME>
1-[2-keto-2-[[5-methyl-1-(3-methylbenzyl)pyrazol-3-yl]amino]ethyl]pyrazole-4-carboxylic acid

> <PUBCHEM_IUPAC_INCHI>
InChI=1S/C18H19N5O3/c1-12-4-3-5-14(6-12)9-23-13(2)7-16(21-23)20-17(24)11-22-10-15(8-19-22)18(25)26/h3-8,10H,9,11H2,1-2H3,(H,25,26)(H,20,21,24)

> <PUBCHEM_IUPAC_INCHIKEY>
OVGCLMAUYYGYIF-UHFFFAOYSA-N

> <PUBCHEM_XLOGP3_AA>
1.8

> <PUBCHEM_EXACT_MASS>
353.148789

> <PUBCHEM_MOLECULAR_FORMULA>
C18H19N5O3

> <PUBCHEM_MOLECULAR_WEIGHT>
353.37516

> <PUBCHEM_OPENEYE_CAN_SMILES>
CC1=CC(=CC=C1)CN2C(=CC(=N2)NC(=O)CN3C=C(C=N3)C(=O)O)C

> <PUBCHEM_OPENEYE_ISO_SMILES>
CC1=CC(=CC=C1)CN2C(=CC(=N2)NC(=O)CN3C=C(C=N3)C(=O)O)C

> <PUBCHEM_CACTVS_TPSA>
102

> <PUBCHEM_MONOISOTOPIC_WEIGHT>
353.148789

> <PUBCHEM_TOTAL_CHARGE>
0

> <PUBCHEM_HEAVY_ATOM_COUNT>
26

> <PUBCHEM_ATOM_DEF_STEREO_COUNT>
0

> <PUBCHEM_ATOM_UDEF_STEREO_COUNT>
0

> <PUBCHEM_BOND_DEF_STEREO_COUNT>
0

> <PUBCHEM_BOND_UDEF_STEREO_COUNT>
0

> <PUBCHEM_ISOTOPIC_ATOM_COUNT>
0

> <PUBCHEM_COMPONENT_COUNT>
1

> <PUBCHEM_CACTVS_TAUTO_COUNT>
10

> <PUBCHEM_COORDINATE_TYPE>
1

> <PUBCHEM_BONDANNOTATIONS>
10  13  8

$$$$
36089241
  CDK     1229141458

 49 51  0  0  0  0  0  0  0  0999 V2000
    3.7321    5.1830    0.0000 Br  0  0  0  0  0  0  0  0  0  0  0  0
    2.0000   -2.8170    0.0000 O   0  0  0  0  0  0  0  0  0  0  0  0
    7.1962    3.1830    0.0000 O   0  0  0  0  0  0  0  0  0  0  0  0
    3.7321   -2.8170    0.0000 N   0  0  0  0  0  0  0  0  0  0  0  0
    4.5981    1.6830    0.0000 N   0  0  0  0  0  0  0  0  0  0  0  0
    2.8660   -4.3170    0.0000 C   0  0  0  0  0  0  0  0  0  0  0  0
    2.3660   -5.1830    0.0000 C   0  0  0  0  0  0  0  0  0  0  0  0
    3.3660   -5.1830    0.0000 C   0  0  0  0  0  0  0  0  0  0  0  0
    2.8660   -3.3170    0.0000 C   0  0  0  0  0  0  0  0  0  0  0  0
    3.7321    1.1830    0.0000 C   0  0  2  0  0  0  0  0  0  0  0  0
    3.7321    0.1830    0.0000 C   0  0  0  0  0  0  0  0  0  0  0  0
    3.7321   -1.8170    0.0000 C   0  0  0  0  0  0  0  0  0  0  0  0
    5.4641    2.1830    0.0000 C   0  0  0  0  0  0  0  0  0  0  0  0
    2.8660    1.6830    0.0000 C   0  0  0  0  0  0  0  0  0  0  0  0
    4.5981   -0.3170    0.0000 C   0  0  0  0  0  0  0  0  0  0  0  0
    2.8660   -0.3170    0.0000 C   0  0  0  0  0  0  0  0  0  0  0  0
    4.5981   -1.3170    0.0000 C   0  0  0  0  0  0  0  0  0  0  0  0
    2.8660   -1.3170    0.0000 C   0  0  0  0  0  0  0  0  0  0  0  0
    5.4641    3.1830    0.0000 C   0  0  0  0  0  0  0  0  0  0  0  0
    6.3301    3.6830    0.0000 C   0  0  0  0  0  0  0  0  0  0  0  0
    4.5981    3.6830    0.0000 C   0  0  0  0  0  0  0  0  0  0  0  0
    6.3301    4.6830    0.0000 C   0  0  0  0  0  0  0  0  0  0  0  0
    4.5981    4.6830    0.0000 C   0  0  0  0  0  0  0  0  0  0  0  0
    5.4641    5.1830    0.0000 C   0  0  0  0  0  0  0  0  0  0  0  0
    8.0622    3.6830    0.0000 C   0  0  0  0  0  0  0  0  0  0  0  0
    3.4649   -4.1565    0.0000 H   0  0  0  0  0  0  0  0  0  0  0  0
    1.7834   -4.9710    0.0000 H   0  0  0  0  0  0  0  0  0  0  0  0
    2.2584   -5.7936    0.0000 H   0  0  0  0  0  0  0  0  0  0  0  0
    3.4737   -5.7936    0.0000 H   0  0  0  0  0  0  0  0  0  0  0  0
    3.9486   -4.9710    0.0000 H   0  0  0  0  0  0  0  0  0  0  0  0
    4.2690   -3.1270    0.0000 H   0  0  0  0  0  0  0  0  0  0  0  0
    3.7321    1.8030    0.0000 H   0  0  0  0  0  0  0  0  0  0  0  0
    4.2881    2.2200    0.0000 H   0  0  0  0  0  0  0  0  0  0  0  0
    4.9081    1.1461    0.0000 H   0  0  0  0  0  0  0  0  0  0  0  0
    5.6762    1.6004    0.0000 H   0  0  0  0  0  0  0  0  0  0  0  0
    6.0747    2.2907    0.0000 H   0  0  0  0  0  0  0  0  0  0  0  0
    3.1760    2.2200    0.0000 H   0  0  0  0  0  0  0  0  0  0  0  0
    2.3291    1.9930    0.0000 H   0  0  0  0  0  0  0  0  0  0  0  0
    2.5560    1.1461    0.0000 H   0  0  0  0  0  0  0  0  0  0  0  0
    5.1350   -0.0070    0.0000 H   0  0  0  0  0  0  0  0  0  0  0  0
    2.3291   -0.0070    0.0000 H   0  0  0  0  0  0  0  0  0  0  0  0
    5.1350   -1.6270    0.0000 H   0  0  0  0  0  0  0  0  0  0  0  0
    2.3291   -1.6270    0.0000 H   0  0  0  0  0  0  0  0  0  0  0  0
    4.0611    3.3730    0.0000 H   0  0  0  0  0  0  0  0  0  0  0  0
    6.8671    4.9930    0.0000 H   0  0  0  0  0  0  0  0  0  0  0  0
    5.4641    5.8030    0.0000 H   0  0  0  0  0  0  0  0  0  0  0  0
    8.3722    3.1461    0.0000 H   0  0  0  0  0  0  0  0  0  0  0  0
    8.5991    3.9930    0.0000 H   0  0  0  0  0  0  0  0  0  0  0  0
    7.7522    4.2200    0.0000 H   0  0  0  0  0  0  0  0  0  0  0  0
  1 23  1  0  0  0  0 
  2  9  2  0  0  0  0 
  3 20  1  0  0  0  0 
  3 25  1  0  0  0  0 
  4  9  1  0  0  0  0 
  4 12  1  0  0  0  0 
  4 31  1  0  0  0  0 
 10  5  1  6  0  0  0 
  5 13  1  0  0  0  0 
  5 33  1  0  0  0  0 
  5 34  1  0  0  0  0 
  6  7  1  0  0  0  0 
  6  8  1  0  0  0  0 
  6  9  1  0  0  0  0 
  6 26  1  0  0  0  0 
  7  8  1  0  0  0  0 
  7 27  1  0  0  0  0 
  7 28  1  0  0  0  0 
  8 29  1  0  0  0  0 
  8 30  1  0  0  0  0 
 10 11  1  0  0  0  0 
 10 14  1  0  0  0  0 
 10 32  1  0  0  0  0 
 11 15  2  0  0  0  0 
 11 16  1  0  0  0  0 
 12 17  2  0  0  0  0 
 12 18  1  0  0  0  0 
 13 19  1  0  0  0  0 
 13 35  1  0  0  0  0 
 13 36  1  0  0  0  0 
 14 37  1  0  0  0  0 
 14 38  1  0  0  0  0 
 14 39  1  0  0  0  0 
 15 17  1  0  0  0  0 
 15 40  1  0  0  0  0 
 16 18  2  0  0  0  0 
 16 41  1  0  0  0  0 
 17 42  1  0  0  0  0 
 18 43  1  0  0  0  0 
 19 20  2  0  0  0  0 
 19 21  1  0  0  0  0 
 20 22  1  0  0  0  0 
 21 23  2  0  0  0  0 
 21 44  1  0  0  0  0 
 22 24  2  0  0  0  0 
 22 45  1  0  0  0  0 
 23 24  1  0  0  0  0 
 24 46  1  0  0  0  0 
 25 47  1  0  0  0  0 
 25 48  1  0  0  0  0 
 25 49  1  0  0  0  0 
M  CHG  1   5   1
M  END
> <cdk:Title>
36089241

> <cdk:Remark>
null

> <PUBCHEM_COMPOUND_CID>
36089241

> <PUBCHEM_COMPOUND_CANONICALIZED>
1

> <PUBCHEM_CACTVS_COMPLEXITY>
435

> <PUBCHEM_CACTVS_HBOND_ACCEPTOR>
2

> <PUBCHEM_CACTVS_HBOND_DONOR>
2

> <PUBCHEM_CACTVS_ROTATABLE_BOND>
7

> <PUBCHEM_CACTVS_SUBSKEYS>
AAADceB7MAAAEAAAAAAAAAAAGAAAAAAAAAAwYAAAAAAAAAABQAAAHgBQAAABrSzBmAYyxoLABACIAiVSUACCCAAhIgQIiIEObKgMJjLEsZuEMChm1BHI6heQwKAOCBAAEAAIAAAQIAAgABAAAAAAAAAAAA==

> <PUBCHEM_IUPAC_OPENEYE_NAME>
(5-bromo-2-methoxy-phenyl)methyl-[(1S)-1-[4-(cyclopropanecarbonylamino)phenyl]ethyl]ammonium

> <PUBCHEM_IUPAC_CAS_NAME>
(5-bromo-2-methoxyphenyl)methyl-[(1S)-1-[4-[[cyclopropyl(oxo)methyl]amino]phenyl]ethyl]ammonium

> <PUBCHEM_IUPAC_NAME>
(5-bromo-2-methoxyphenyl)methyl-[(1S)-1-[4-(cyclopropanecarbonylamino)phenyl]ethyl]azanium

> <PUBCHEM_IUPAC_SYSTEMATIC_NAME>
(5-bromanyl-2-methoxy-phenyl)methyl-[(1S)-1-[4-(cyclopropylcarbonylamino)phenyl]ethyl]azanium

> <PUBCHEM_IUPAC_TRADITIONAL_NAME>
(5-bromo-2-methoxy-benzyl)-[(1S)-1-[4-(cyclopropanecarbonylamino)phenyl]ethyl]ammonium

> <PUBCHEM_IUPAC_INCHI>
InChI=1S/C20H23BrN2O2/c1-13(22-12-16-11-17(21)7-10-19(16)25-2)14-5-8-18(9-6-14)23-20(24)15-3-4-15/h5-11,13,15,22H,3-4,12H2,1-2H3,(H,23,24)/p+1/t13-/m0/s1

> <PUBCHEM_IUPAC_INCHIKEY>
VEWRIBHYTRHXAB-ZDUSSCGKSA-O

> <PUBCHEM_XLOGP3_AA>
3.5

> <PUBCHEM_EXACT_MASS>
403.102115

> <PUBCHEM_MOLECULAR_FORMULA>
C20H24BrN2O2+

> <PUBCHEM_MOLECULAR_WEIGHT>
404.32076

> <PUBCHEM_OPENEYE_CAN_SMILES>
CC(C1=CC=C(C=C1)NC(=O)C2CC2)[NH2+]CC3=C(C=CC(=C3)Br)OC

> <PUBCHEM_OPENEYE_ISO_SMILES>
C[C@@H](C1=CC=C(C=C1)NC(=O)C2CC2)[NH2+]CC3=C(C=CC(=C3)Br)OC

> <PUBCHEM_CACTVS_TPSA>
54.9

> <PUBCHEM_MONOISOTOPIC_WEIGHT>
403.102115

> <PUBCHEM_TOTAL_CHARGE>
1

> <PUBCHEM_HEAVY_ATOM_COUNT>
25

> <PUBCHEM_ATOM_DEF_STEREO_COUNT>
1

> <PUBCHEM_ATOM_UDEF_STEREO_COUNT>
0

> <PUBCHEM_BOND_DEF_STEREO_COUNT>
0

> <PUBCHEM_BOND_UDEF_STEREO_COUNT>
0

> <PUBCHEM_ISOTOPIC_ATOM_COUNT>
0

> <PUBCHEM_COMPONENT_COUNT>
1

> <PUBCHEM_CACTVS_TAUTO_COUNT>
2

> <PUBCHEM_COORDINATE_TYPE>
1

> <PUBCHEM_BONDANNOTATIONS>
11  15  8

$$$$
56229473
  CDK     1229141458

 48 50  0  0  0  0  0  0  0  0999 V2000
    6.2372   -5.1589    0.0000 Cl  0  0  0  0  0  0  0  0  0  0  0  0
    4.5981    3.6615    0.0000 O   0  0  0  0  0  0  0  0  0  0  0  0
    2.8660    2.6615    0.0000 O   0  0  0  0  0  0  0  0  0  0  0  0
    4.5981   -2.3385    0.0000 O   0  0  0  0  0  0  0  0  0  0  0  0
    4.5981    5.6615    0.0000 O   0  0  0  0  0  0  0  0  0  0  0  0
    5.4641   -0.8385    0.0000 N   0  0  0  0  0  0  0  0  0  0  0  0
    7.4128   -3.5409    0.0000 N   0  0  0  0  0  0  0  0  0  0  0  0
    6.4347   -3.3330    0.0000 N   0  0  0  0  0  0  0  0  0  0  0  0
    6.3301    5.6615    0.0000 N   0  0  0  0  0  0  0  0  0  0  0  0
    4.5981    0.6615    0.0000 C   0  0  0  0  0  0  0  0  0  0  0  0
    4.5981   -0.3385    0.0000 C   0  0  0  0  0  0  0  0  0  0  0  0
    3.7320    1.1615    0.0000 C   0  0  0  0  0  0  0  0  0  0  0  0
    5.4641    1.1615    0.0000 C   0  0  0  0  0  0  0  0  0  0  0  0
    3.7320    2.1615    0.0000 C   0  0  0  0  0  0  0  0  0  0  0  0
    4.5981    2.6615    0.0000 C   0  0  0  0  0  0  0  0  0  0  0  0
    6.3301   -2.3385    0.0000 C   0  0  0  0  0  0  0  0  0  0  0  0
    5.4641    2.1615    0.0000 C   0  0  0  0  0  0  0  0  0  0  0  0
    5.4641   -1.8385    0.0000 C   0  0  0  0  0  0  0  0  0  0  0  0
    7.8195   -4.4544    0.0000 C   0  0  0  0  0  0  0  0  0  0  0  0
    7.2437   -1.9317    0.0000 C   0  0  0  0  0  0  0  0  0  0  0  0
    7.9128   -2.6749    0.0000 C   0  0  0  0  0  0  0  0  0  0  0  0
    7.2318   -5.2635    0.0000 C   0  0  0  0  0  0  0  0  0  0  0  0
    8.8141   -4.5590    0.0000 C   0  0  0  0  0  0  0  0  0  0  0  0
    7.6385   -6.1770    0.0000 C   0  0  0  0  0  0  0  0  0  0  0  0
    9.2208   -5.4725    0.0000 C   0  0  0  0  0  0  0  0  0  0  0  0
    5.4641    4.1615    0.0000 C   0  0  0  0  0  0  0  0  0  0  0  0
    8.6330   -6.2815    0.0000 C   0  0  0  0  0  0  0  0  0  0  0  0
    2.0000    2.1615    0.0000 C   0  0  0  0  0  0  0  0  0  0  0  0
    5.4641    5.1615    0.0000 C   0  0  0  0  0  0  0  0  0  0  0  0
    3.9875   -0.2308    0.0000 H   0  0  0  0  0  0  0  0  0  0  0  0
    4.3860   -0.9211    0.0000 H   0  0  0  0  0  0  0  0  0  0  0  0
    3.1951    0.8515    0.0000 H   0  0  0  0  0  0  0  0  0  0  0  0
    6.0010    0.8515    0.0000 H   0  0  0  0  0  0  0  0  0  0  0  0
    6.0010   -0.5285    0.0000 H   0  0  0  0  0  0  0  0  0  0  0  0
    6.0010    2.4715    0.0000 H   0  0  0  0  0  0  0  0  0  0  0  0
    7.3726   -1.3253    0.0000 H   0  0  0  0  0  0  0  0  0  0  0  0
    8.5294   -2.6101    0.0000 H   0  0  0  0  0  0  0  0  0  0  0  0
    9.1785   -4.0574    0.0000 H   0  0  0  0  0  0  0  0  0  0  0  0
    7.2741   -6.6786    0.0000 H   0  0  0  0  0  0  0  0  0  0  0  0
    9.8374   -5.5373    0.0000 H   0  0  0  0  0  0  0  0  0  0  0  0
    5.6762    3.5789    0.0000 H   0  0  0  0  0  0  0  0  0  0  0  0
    6.0747    4.2692    0.0000 H   0  0  0  0  0  0  0  0  0  0  0  0
    8.8852   -6.8479    0.0000 H   0  0  0  0  0  0  0  0  0  0  0  0
    1.6900    2.6985    0.0000 H   0  0  0  0  0  0  0  0  0  0  0  0
    1.4631    1.8515    0.0000 H   0  0  0  0  0  0  0  0  0  0  0  0
    2.3100    1.6246    0.0000 H   0  0  0  0  0  0  0  0  0  0  0  0
    6.3301    6.2815    0.0000 H   0  0  0  0  0  0  0  0  0  0  0  0
    6.8671    5.3515    0.0000 H   0  0  0  0  0  0  0  0  0  0  0  0
  1 22  1  0  0  0  0 
  2 15  1  0  0  0  0 
  2 26  1  0  0  0  0 
  3 14  1  0  0  0  0 
  3 28  1  0  0  0  0 
  4 18  2  0  0  0  0 
  5 29  2  0  0  0  0 
  6 11  1  0  0  0  0 
  6 18  1  0  0  0  0 
  6 34  1  0  0  0  0 
  7  8  1  0  0  0  0 
  7 19  1  0  0  0  0 
  7 21  1  0  0  0  0 
  8 16  2  0  0  0  0 
  9 29  1  0  0  0  0 
  9 47  1  0  0  0  0 
  9 48  1  0  0  0  0 
 10 11  1  0  0  0  0 
 10 12  2  0  0  0  0 
 10 13  1  0  0  0  0 
 11 30  1  0  0  0  0 
 11 31  1  0  0  0  0 
 12 14  1  0  0  0  0 
 12 32  1  0  0  0  0 
 13 17  2  0  0  0  0 
 13 33  1  0  0  0  0 
 14 15  2  0  0  0  0 
 15 17  1  0  0  0  0 
 16 18  1  0  0  0  0 
 16 20  1  0  0  0  0 
 17 35  1  0  0  0  0 
 19 22  1  0  0  0  0 
 19 23  2  0  0  0  0 
 20 21  2  0  0  0  0 
 20 36  1  0  0  0  0 
 21 37  1  0  0  0  0 
 22 24  2  0  0  0  0 
 23 25  1  0  0  0  0 
 23 38  1  0  0  0  0 
 24 27  1  0  0  0  0 
 24 39  1  0  0  0  0 
 25 27  2  0  0  0  0 
 25 40  1  0  0  0  0 
 26 29  1  0  0  0  0 
 26 41  1  0  0  0  0 
 26 42  1  0  0  0  0 
 27 43  1  0  0  0  0 
 28 44  1  0  0  0  0 
 28 45  1  0  0  0  0 
 28 46  1  0  0  0  0 
M  END
> <cdk:Title>
56229473

> <cdk:Remark>
null

> <PUBCHEM_COMPOUND_CID>
56229473

> <PUBCHEM_COMPOUND_CANONICALIZED>
1

> <PUBCHEM_CACTVS_COMPLEXITY>
567

> <PUBCHEM_CACTVS_HBOND_ACCEPTOR>
5

> <PUBCHEM_CACTVS_HBOND_DONOR>
2

> <PUBCHEM_CACTVS_ROTATABLE_BOND>
8

> <PUBCHEM_CACTVS_SUBSKEYS>
AAADceB7uAAEAAAAAAAAAAAAAAAAAWAAAAAwYAAAAAAAAAAB0AAAHgIYAAAADA7hniY+xpLIBACqAzV3VAKSDCA3pwAYmKH+7tgPZvLF99/XvSrk3hHK6Ye00BIOIAABAAAAQBBAAAIAAACAIAAAAAAAAA==

> <PUBCHEM_IUPAC_OPENEYE_NAME>
N-[[4-(2-amino-2-oxo-ethoxy)-3-methoxy-phenyl]methyl]-1-(2-chlorophenyl)pyrazole-3-carboxamide

> <PUBCHEM_IUPAC_CAS_NAME>
N-[[4-(2-amino-2-oxoethoxy)-3-methoxyphenyl]methyl]-1-(2-chlorophenyl)-3-pyrazolecarboxamide

> <PUBCHEM_IUPAC_NAME>
N-[[4-(2-amino-2-oxoethoxy)-3-methoxyphenyl]methyl]-1-(2-chlorophenyl)pyrazole-3-carboxamide

> <PUBCHEM_IUPAC_SYSTEMATIC_NAME>
N-[[4-(2-azanyl-2-oxidanylidene-ethoxy)-3-methoxy-phenyl]methyl]-1-(2-chlorophenyl)pyrazole-3-carboxamide

> <PUBCHEM_IUPAC_TRADITIONAL_NAME>
N-[4-(2-amino-2-keto-ethoxy)-3-methoxy-benzyl]-1-(2-chlorophenyl)pyrazole-3-carboxamide

> <PUBCHEM_IUPAC_INCHI>
InChI=1S/C20H19ClN4O4/c1-28-18-10-13(6-7-17(18)29-12-19(22)26)11-23-20(27)15-8-9-25(24-15)16-5-3-2-4-14(16)21/h2-10H,11-12H2,1H3,(H2,22,26)(H,23,27)

> <PUBCHEM_IUPAC_INCHIKEY>
AGEZJODCQQGPBB-UHFFFAOYSA-N

> <PUBCHEM_XLOGP3_AA>
2.5

> <PUBCHEM_EXACT_MASS>
414.109483

> <PUBCHEM_MOLECULAR_FORMULA>
C20H19ClN4O4

> <PUBCHEM_MOLECULAR_WEIGHT>
414.84226

> <PUBCHEM_OPENEYE_CAN_SMILES>
COC1=C(C=CC(=C1)CNC(=O)C2=NN(C=C2)C3=CC=CC=C3Cl)OCC(=O)N

> <PUBCHEM_OPENEYE_ISO_SMILES>
COC1=C(C=CC(=C1)CNC(=O)C2=NN(C=C2)C3=CC=CC=C3Cl)OCC(=O)N

> <PUBCHEM_CACTVS_TPSA>
109

> <PUBCHEM_MONOISOTOPIC_WEIGHT>
414.109483

> <PUBCHEM_TOTAL_CHARGE>
0

> <PUBCHEM_HEAVY_ATOM_COUNT>
29

> <PUBCHEM_ATOM_DEF_STEREO_COUNT>
0

> <PUBCHEM_ATOM_UDEF_STEREO_COUNT>
0

> <PUBCHEM_BOND_DEF_STEREO_COUNT>
0

> <PUBCHEM_BOND_UDEF_STEREO_COUNT>
0

> <PUBCHEM_ISOTOPIC_ATOM_COUNT>
0

> <PUBCHEM_COMPONENT_COUNT>
1

> <PUBCHEM_CACTVS_TAUTO_COUNT>
6

> <PUBCHEM_COORDINATE_TYPE>
1

> <PUBCHEM_BONDANNOTATIONS>
10  12  8

$$$$
34637812
  CDK     1229141458

 38 40  0  0  0  0  0  0  0  0999 V2000
    8.9757    0.2853    0.0000 S   0  0  0  0  0  0  0  0  0  0  0  0
    2.0000   -0.8080    0.0000 F   0  0  0  0  0  0  0  0  0  0  0  0
    2.8660   -2.3080    0.0000 F   0  0  0  0  0  0  0  0  0  0  0  0
    9.5516    2.8080    0.0000 O   0  0  0  0  0  0  0  0  0  0  0  0
    3.7320   -0.8080    0.0000 O   0  0  0  0  0  0  0  0  0  0  0  0
    8.1667    1.6865    0.0000 N   0  0  0  0  0  0  0  0  0  0  0  0
    7.1962    0.1920    0.0000 N   0  0  0  0  0  0  0  0  0  0  0  0
    6.3301    0.6920    0.0000 N   0  0  0  0  0  0  0  0  0  0  0  0
    9.6448    1.0284    0.0000 C   0  0  2  0  0  0  0  0  0  0  0  0
   10.6394    0.9239    0.0000 C   0  0  0  0  0  0  0  0  0  0  0  0
    9.1448    1.8944    0.0000 C   0  0  0  0  0  0  0  0  0  0  0  0
   11.0461    0.0103    0.0000 C   0  0  0  0  0  0  0  0  0  0  0  0
   11.2272    1.7329    0.0000 C   0  0  0  0  0  0  0  0  0  0  0  0
    8.0622    0.6920    0.0000 C   0  0  0  0  0  0  0  0  0  0  0  0
   12.0406   -0.0942    0.0000 C   0  0  0  0  0  0  0  0  0  0  0  0
   12.2217    1.6284    0.0000 C   0  0  0  0  0  0  0  0  0  0  0  0
   12.6284    0.7148    0.0000 C   0  0  0  0  0  0  0  0  0  0  0  0
    5.4641   -0.8080    0.0000 C   0  0  0  0  0  0  0  0  0  0  0  0
    4.5981   -1.3080    0.0000 C   0  0  0  0  0  0  0  0  0  0  0  0
    6.3301   -1.3080    0.0000 C   0  0  0  0  0  0  0  0  0  0  0  0
    5.4641    0.1920    0.0000 C   0  0  0  0  0  0  0  0  0  0  0  0
    4.5981   -2.3080    0.0000 C   0  0  0  0  0  0  0  0  0  0  0  0
    6.3301   -2.3080    0.0000 C   0  0  0  0  0  0  0  0  0  0  0  0
    5.4641   -2.8080    0.0000 C   0  0  0  0  0  0  0  0  0  0  0  0
    2.8660   -1.3080    0.0000 C   0  0  0  0  0  0  0  0  0  0  0  0
    9.9825    1.5484    0.0000 H   0  0  0  0  0  0  0  0  0  0  0  0
   10.6817   -0.4912    0.0000 H   0  0  0  0  0  0  0  0  0  0  0  0
   10.9750    2.2993    0.0000 H   0  0  0  0  0  0  0  0  0  0  0  0
   12.2928   -0.6606    0.0000 H   0  0  0  0  0  0  0  0  0  0  0  0
   12.5861    2.1300    0.0000 H   0  0  0  0  0  0  0  0  0  0  0  0
   13.2450    0.6500    0.0000 H   0  0  0  0  0  0  0  0  0  0  0  0
    7.1962   -0.4280    0.0000 H   0  0  0  0  0  0  0  0  0  0  0  0
    6.8671   -0.9980    0.0000 H   0  0  0  0  0  0  0  0  0  0  0  0
    4.9272    0.5020    0.0000 H   0  0  0  0  0  0  0  0  0  0  0  0
    4.0611   -2.6180    0.0000 H   0  0  0  0  0  0  0  0  0  0  0  0
    6.8671   -2.6180    0.0000 H   0  0  0  0  0  0  0  0  0  0  0  0
    5.4641   -3.4280    0.0000 H   0  0  0  0  0  0  0  0  0  0  0  0
    2.8660   -0.6880    0.0000 H   0  0  0  0  0  0  0  0  0  0  0  0
  1  9  1  0  0  0  0 
  1 14  1  0  0  0  0 
  2 25  1  0  0  0  0 
  3 25  1  0  0  0  0 
  4 11  2  0  0  0  0 
  5 19  1  0  0  0  0 
  5 25  1  0  0  0  0 
  6 11  1  0  0  0  0 
  6 14  2  0  0  0  0 
  7  8  1  0  0  0  0 
  7 14  1  0  0  0  0 
  7 32  1  0  0  0  0 
  8 21  2  0  0  0  0 
  9 10  1  1  0  0  0 
  9 11  1  0  0  0  0 
  9 26  1  0  0  0  0 
 10 12  2  0  0  0  0 
 10 13  1  0  0  0  0 
 12 15  1  0  0  0  0 
 12 27  1  0  0  0  0 
 13 16  2  0  0  0  0 
 13 28  1  0  0  0  0 
 15 17  2  0  0  0  0 
 15 29  1  0  0  0  0 
 16 17  1  0  0  0  0 
 16 30  1  0  0  0  0 
 17 31  1  0  0  0  0 
 18 19  1  0  0  0  0 
 18 20  2  0  0  0  0 
 18 21  1  0  0  0  0 
 19 22  2  0  0  0  0 
 20 23  1  0  0  0  0 
 20 33  1  0  0  0  0 
 21 34  1  0  0  0  0 
 22 24  1  0  0  0  0 
 22 35  1  0  0  0  0 
 23 24  2  0  0  0  0 
 23 36  1  0  0  0  0 
 24 37  1  0  0  0  0 
 25 38  1  0  0  0  0 
M  END
> <cdk:Title>
34637812

> <cdk:Remark>
null

> <PUBCHEM_COMPOUND_CID>
34637812

> <PUBCHEM_COMPOUND_CANONICALIZED>
1

> <PUBCHEM_CACTVS_COMPLEXITY>
524

> <PUBCHEM_CACTVS_HBOND_ACCEPTOR>
6

> <PUBCHEM_CACTVS_HBOND_DONOR>
1

> <PUBCHEM_CACTVS_ROTATABLE_BOND>
6

> <PUBCHEM_CACTVS_SUBSKEYS>
AAADccB7MYBAAAAAAAAAAAAAAAAAAQAAAAAwYAAAAAAAAAABQAAAHwQYAAAADATF2BaxBoJiBAioAjFzNAASGAFgIBAIiAEmCJgMJrKktRuAMCAkyBEIqAeYyKCOAAAAAAAIAAAAAAAAABAAAAAAAAAAAA==

> <PUBCHEM_IUPAC_OPENEYE_NAME>
(5R)-2-[(2Z)-2-[[2-(difluoromethoxy)phenyl]methylene]hydrazino]-5-phenyl-thiazol-4-one

> <PUBCHEM_IUPAC_CAS_NAME>
(5R)-2-[(2Z)-2-[[2-(difluoromethoxy)phenyl]methylidene]hydrazinyl]-5-phenyl-4-thiazolone

> <PUBCHEM_IUPAC_NAME>
(5R)-2-[(2Z)-2-[[2-(difluoromethoxy)phenyl]methylidene]hydrazinyl]-5-phenyl-1,3-thiazol-4-one

> <PUBCHEM_IUPAC_SYSTEMATIC_NAME>
(5R)-2-[(2Z)-2-[[2-[bis(fluoranyl)methoxy]phenyl]methylidene]hydrazinyl]-5-phenyl-1,3-thiazol-4-one

> <PUBCHEM_IUPAC_TRADITIONAL_NAME>
(5R)-2-[(N'Z)-N'-[2-(difluoromethoxy)benzylidene]hydrazino]-5-phenyl-2-thiazolin-4-one

> <PUBCHEM_IUPAC_INCHI>
InChI=1S/C17H13F2N3O2S/c18-16(19)24-13-9-5-4-8-12(13)10-20-22-17-21-15(23)14(25-17)11-6-2-1-3-7-11/h1-10,14,16H,(H,21,22,23)/b20-10-/t14-/m1/s1

> <PUBCHEM_IUPAC_INCHIKEY>
SEPFCYQCUTYXJG-IPZKOZABSA-N

> <PUBCHEM_XLOGP3_AA>
4.4

> <PUBCHEM_EXACT_MASS>
361.069654

> <PUBCHEM_MOLECULAR_FORMULA>
C17H13F2N3O2S

> <PUBCHEM_MOLECULAR_WEIGHT>
361.365826

> <PUBCHEM_OPENEYE_CAN_SMILES>
C1=CC=C(C=C1)C2C(=O)N=C(S2)NN=CC3=CC=CC=C3OC(F)F

> <PUBCHEM_OPENEYE_ISO_SMILES>
C1=CC=C(C=C1)[C@@H]2C(=O)N=C(S2)N/N=C\C3=CC=CC=C3OC(F)F

> <PUBCHEM_CACTVS_TPSA>
88.4

> <PUBCHEM_MONOISOTOPIC_WEIGHT>
361.069654

> <PUBCHEM_TOTAL_CHARGE>
0

> <PUBCHEM_HEAVY_ATOM_COUNT>
25

> <PUBCHEM_ATOM_DEF_STEREO_COUNT>
1

> <PUBCHEM_ATOM_UDEF_STEREO_COUNT>
0

> <PUBCHEM_BOND_DEF_STEREO_COUNT>
1

> <PUBCHEM_BOND_UDEF_STEREO_COUNT>
0

> <PUBCHEM_ISOTOPIC_ATOM_COUNT>
0

> <PUBCHEM_COMPONENT_COUNT>
1

> <PUBCHEM_CACTVS_TAUTO_COUNT>
5

> <PUBCHEM_COORDINATE_TYPE>
1

> <PUBCHEM_BONDANNOTATIONS>
10  12  8

$$$$
15919642
  CDK     1229141458

 76 78  0  0  0  0  0  0  0  0999 V2000
    4.5981   -4.2500    0.0000 O   0  0  0  0  0  0  0  0  0  0  0  0
    6.3301   -4.2500    0.0000 O   0  0  0  0  0  0  0  0  0  0  0  0
    5.4641    7.2500    0.0000 C   0  0  0  0  0  0  0  0  0  0  0  0
    5.4641    5.2500    0.0000 C   0  0  0  0  0  0  0  0  0  0  0  0
    4.5981    6.7500    0.0000 C   0  0  0  0  0  0  0  0  0  0  0  0
    6.3301    6.7500    0.0000 C   0  0  0  0  0  0  0  0  0  0  0  0
    4.5981    5.7500    0.0000 C   0  0  0  0  0  0  0  0  0  0  0  0
    6.3301    5.7500    0.0000 C   0  0  0  0  0  0  0  0  0  0  0  0
    5.4641    8.2500    0.0000 C   0  0  0  0  0  0  0  0  0  0  0  0
    5.4641    4.2500    0.0000 C   0  0  0  0  0  0  0  0  0  0  0  0
    6.3301    8.7500    0.0000 C   0  0  0  0  0  0  0  0  0  0  0  0
    4.5981    3.7500    0.0000 C   0  0  0  0  0  0  0  0  0  0  0  0
    6.3301    3.7500    0.0000 C   0  0  0  0  0  0  0  0  0  0  0  0
    6.3301    9.7500    0.0000 C   0  0  0  0  0  0  0  0  0  0  0  0
    4.5981    2.7500    0.0000 C   0  0  0  0  0  0  0  0  0  0  0  0
    6.3301    2.7500    0.0000 C   0  0  0  0  0  0  0  0  0  0  0  0
    5.4641    2.2500    0.0000 C   0  0  0  0  0  0  0  0  0  0  0  0
    5.4641    1.2500    0.0000 C   0  0  0  0  0  0  0  0  0  0  0  0
    3.7320   -6.7500    0.0000 C   0  0  0  0  0  0  0  0  0  0  0  0
    2.8660   -7.2500    0.0000 C   0  0  0  0  0  0  0  0  0  0  0  0
    3.7320   -5.7500    0.0000 C   0  0  0  0  0  0  0  0  0  0  0  0
    2.8660   -8.2500    0.0000 C   0  0  0  0  0  0  0  0  0  0  0  0
    4.5981   -5.2500    0.0000 C   0  0  3  0  0  0  0  0  0  0  0  0
    2.0000   -8.7500    0.0000 C   0  0  0  0  0  0  0  0  0  0  0  0
    5.4641   -5.7500    0.0000 C   0  0  0  0  0  0  0  0  0  0  0  0
    5.4641    0.2500    0.0000 C   0  0  0  0  0  0  0  0  0  0  0  0
    2.0000   -9.7500    0.0000 C   0  0  0  0  0  0  0  0  0  0  0  0
    5.4641   -0.7500    0.0000 C   0  0  0  0  0  0  0  0  0  0  0  0
    5.4641   -3.7500    0.0000 C   0  0  0  0  0  0  0  0  0  0  0  0
    5.4641   -2.7500    0.0000 C   0  0  0  0  0  0  0  0  0  0  0  0
    4.5981   -1.2500    0.0000 C   0  0  0  0  0  0  0  0  0  0  0  0
    6.3301   -1.2500    0.0000 C   0  0  0  0  0  0  0  0  0  0  0  0
    4.5981   -2.2500    0.0000 C   0  0  0  0  0  0  0  0  0  0  0  0
    6.3301   -2.2500    0.0000 C   0  0  0  0  0  0  0  0  0  0  0  0
    6.0010    7.5600    0.0000 H   0  0  0  0  0  0  0  0  0  0  0  0
    6.0010    4.9400    0.0000 H   0  0  0  0  0  0  0  0  0  0  0  0
    4.3860    7.3326    0.0000 H   0  0  0  0  0  0  0  0  0  0  0  0
    3.9875    6.6423    0.0000 H   0  0  0  0  0  0  0  0  0  0  0  0
    6.9407    6.6423    0.0000 H   0  0  0  0  0  0  0  0  0  0  0  0
    6.5422    7.3326    0.0000 H   0  0  0  0  0  0  0  0  0  0  0  0
    6.5422    5.1674    0.0000 H   0  0  0  0  0  0  0  0  0  0  0  0
    6.9407    5.8577    0.0000 H   0  0  0  0  0  0  0  0  0  0  0  0
    3.9875    5.8577    0.0000 H   0  0  0  0  0  0  0  0  0  0  0  0
    4.3860    5.1674    0.0000 H   0  0  0  0  0  0  0  0  0  0  0  0
    5.2520    8.8326    0.0000 H   0  0  0  0  0  0  0  0  0  0  0  0
    4.8535    8.1423    0.0000 H   0  0  0  0  0  0  0  0  0  0  0  0
    6.5422    8.1674    0.0000 H   0  0  0  0  0  0  0  0  0  0  0  0
    6.9407    8.8577    0.0000 H   0  0  0  0  0  0  0  0  0  0  0  0
    4.0611    4.0600    0.0000 H   0  0  0  0  0  0  0  0  0  0  0  0
    6.8671    4.0600    0.0000 H   0  0  0  0  0  0  0  0  0  0  0  0
    6.9501    9.7500    0.0000 H   0  0  0  0  0  0  0  0  0  0  0  0
    6.3301   10.3700    0.0000 H   0  0  0  0  0  0  0  0  0  0  0  0
    5.7101    9.7500    0.0000 H   0  0  0  0  0  0  0  0  0  0  0  0
    4.0611    2.4400    0.0000 H   0  0  0  0  0  0  0  0  0  0  0  0
    6.8671    2.4400    0.0000 H   0  0  0  0  0  0  0  0  0  0  0  0
    3.9441   -7.3326    0.0000 H   0  0  0  0  0  0  0  0  0  0  0  0
    4.3426   -6.6423    0.0000 H   0  0  0  0  0  0  0  0  0  0  0  0
    2.6540   -6.6674    0.0000 H   0  0  0  0  0  0  0  0  0  0  0  0
    2.2554   -7.3577    0.0000 H   0  0  0  0  0  0  0  0  0  0  0  0
    3.5200   -5.1674    0.0000 H   0  0  0  0  0  0  0  0  0  0  0  0
    3.1215   -5.8577    0.0000 H   0  0  0  0  0  0  0  0  0  0  0  0
    3.0781   -8.8326    0.0000 H   0  0  0  0  0  0  0  0  0  0  0  0
    3.4766   -8.1423    0.0000 H   0  0  0  0  0  0  0  0  0  0  0  0
    5.1350   -4.9400    0.0000 H   0  0  0  0  0  0  0  0  0  0  0  0
    1.7880   -8.1674    0.0000 H   0  0  0  0  0  0  0  0  0  0  0  0
    1.3894   -8.8577    0.0000 H   0  0  0  0  0  0  0  0  0  0  0  0
    5.1541   -6.2869    0.0000 H   0  0  0  0  0  0  0  0  0  0  0  0
    6.0010   -6.0600    0.0000 H   0  0  0  0  0  0  0  0  0  0  0  0
    5.7741   -5.2131    0.0000 H   0  0  0  0  0  0  0  0  0  0  0  0
    1.3800   -9.7500    0.0000 H   0  0  0  0  0  0  0  0  0  0  0  0
    2.0000  -10.3700    0.0000 H   0  0  0  0  0  0  0  0  0  0  0  0
    2.6200   -9.7500    0.0000 H   0  0  0  0  0  0  0  0  0  0  0  0
    4.0611   -0.9400    0.0000 H   0  0  0  0  0  0  0  0  0  0  0  0
    6.8671   -0.9400    0.0000 H   0  0  0  0  0  0  0  0  0  0  0  0
    4.0611   -2.5600    0.0000 H   0  0  0  0  0  0  0  0  0  0  0  0
    6.8671   -2.5600    0.0000 H   0  0  0  0  0  0  0  0  0  0  0  0
  1 23  1  0  0  0  0 
  1 29  1  0  0  0  0 
  2 29  2  0  0  0  0 
  3  5  1  0  0  0  0 
  3  6  1  0  0  0  0 
  3  9  1  0  0  0  0 
  3 35  1  0  0  0  0 
  4  7  1  0  0  0  0 
  4  8  1  0  0  0  0 
  4 10  1  0  0  0  0 
  4 36  1  0  0  0  0 
  5  7  1  0  0  0  0 
  5 37  1  0  0  0  0 
  5 38  1  0  0  0  0 
  6  8  1  0  0  0  0 
  6 39  1  0  0  0  0 
  6 40  1  0  0  0  0 
  7 43  1  0  0  0  0 
  7 44  1  0  0  0  0 
  8 41  1  0  0  0  0 
  8 42  1  0  0  0  0 
  9 11  1  0  0  0  0 
  9 45  1  0  0  0  0 
  9 46  1  0  0  0  0 
 10 12  2  0  0  0  0 
 10 13  1  0  0  0  0 
 11 14  1  0  0  0  0 
 11 47  1  0  0  0  0 
 11 48  1  0  0  0  0 
 12 15  1  0  0  0  0 
 12 49  1  0  0  0  0 
 13 16  2  0  0  0  0 
 13 50  1  0  0  0  0 
 14 51  1  0  0  0  0 
 14 52  1  0  0  0  0 
 14 53  1  0  0  0  0 
 15 17  2  0  0  0  0 
 15 54  1  0  0  0  0 
 16 17  1  0  0  0  0 
 16 55  1  0  0  0  0 
 17 18  1  0  0  0  0 
 18 26  3  0  0  0  0 
 19 20  1  0  0  0  0 
 19 21  1  0  0  0  0 
 19 56  1  0  0  0  0 
 19 57  1  0  0  0  0 
 20 22  1  0  0  0  0 
 20 58  1  0  0  0  0 
 20 59  1  0  0  0  0 
 21 23  1  0  0  0  0 
 21 60  1  0  0  0  0 
 21 61  1  0  0  0  0 
 22 24  1  0  0  0  0 
 22 62  1  0  0  0  0 
 22 63  1  0  0  0  0 
 23 25  1  0  0  0  0 
 23 64  1  0  0  0  0 
 24 27  1  0  0  0  0 
 24 65  1  0  0  0  0 
 24 66  1  0  0  0  0 
 25 67  1  0  0  0  0 
 25 68  1  0  0  0  0 
 25 69  1  0  0  0  0 
 26 28  1  0  0  0  0 
 27 70  1  0  0  0  0 
 27 71  1  0  0  0  0 
 27 72  1  0  0  0  0 
 28 31  2  0  0  0  0 
 28 32  1  0  0  0  0 
 29 30  1  0  0  0  0 
 30 33  2  0  0  0  0 
 30 34  1  0  0  0  0 
 31 33  1  0  0  0  0 
 31 73  1  0  0  0  0 
 32 34  2  0  0  0  0 
 32 74  1  0  0  0  0 
 33 75  1  0  0  0  0 
 34 76  1  0  0  0  0 
M  END
> <cdk:Title>
15919642

> <cdk:Remark>
null

> <PUBCHEM_COMPOUND_CID>
15919642

> <PUBCHEM_COMPOUND_CANONICALIZED>
1

> <PUBCHEM_CACTVS_COMPLEXITY>
630

> <PUBCHEM_CACTVS_HBOND_ACCEPTOR>
2

> <PUBCHEM_CACTVS_HBOND_DONOR>
0

> <PUBCHEM_CACTVS_ROTATABLE_BOND>
13

> <PUBCHEM_CACTVS_SUBSKEYS>
AAADcfB8MAAAAAAAAAAAAAAAAAAAAAAAAAAwYMAAAAAAAAABQAAAGgAAAAAADRSgmAIyCIAABADIEiDSCAgCAAAkAAAIiAEACMgIJjKANRiCMQAkwAEIqYeIyPCOwAAAAAAAAACAAAAAAAAAAAAAAAAAAA==

> <PUBCHEM_IUPAC_OPENEYE_NAME>
1-methylheptyl 4-[2-[4-(4-propylcyclohexyl)phenyl]ethynyl]benzoate

> <PUBCHEM_IUPAC_CAS_NAME>
4-[2-[4-(4-propylcyclohexyl)phenyl]ethynyl]benzoic acid octan-2-yl ester

> <PUBCHEM_IUPAC_NAME>
octan-2-yl 4-[2-[4-(4-propylcyclohexyl)phenyl]ethynyl]benzoate

> <PUBCHEM_IUPAC_SYSTEMATIC_NAME>
octan-2-yl 4-[2-[4-(4-propylcyclohexyl)phenyl]ethynyl]benzoate

> <PUBCHEM_IUPAC_TRADITIONAL_NAME>
4-[2-[4-(4-propylcyclohexyl)phenyl]ethynyl]benzoic acid 1-methylheptyl ester

> <PUBCHEM_IUPAC_INCHI>
InChI=1S/C32H42O2/c1-4-6-7-8-10-25(3)34-32(33)31-23-17-28(18-24-31)12-11-27-15-21-30(22-16-27)29-19-13-26(9-5-2)14-20-29/h15-18,21-26,29H,4-10,13-14,19-20H2,1-3H3

> <PUBCHEM_IUPAC_INCHIKEY>
XYVGXXOCBFDUAI-UHFFFAOYSA-N

> <PUBCHEM_XLOGP3_AA>
11

> <PUBCHEM_EXACT_MASS>
458.318481

> <PUBCHEM_MOLECULAR_FORMULA>
C32H42O2

> <PUBCHEM_MOLECULAR_WEIGHT>
458.67468

> <PUBCHEM_OPENEYE_CAN_SMILES>
CCCCCCC(C)OC(=O)C1=CC=C(C=C1)C#CC2=CC=C(C=C2)C3CCC(CC3)CCC

> <PUBCHEM_OPENEYE_ISO_SMILES>
CCCCCCC(C)OC(=O)C1=CC=C(C=C1)C#CC2=CC=C(C=C2)C3CCC(CC3)CCC

> <PUBCHEM_CACTVS_TPSA>
26.3

> <PUBCHEM_MONOISOTOPIC_WEIGHT>
458.318481

> <PUBCHEM_TOTAL_CHARGE>
0

> <PUBCHEM_HEAVY_ATOM_COUNT>
34

> <PUBCHEM_ATOM_DEF_STEREO_COUNT>
0

> <PUBCHEM_ATOM_UDEF_STEREO_COUNT>
1

> <PUBCHEM_BOND_DEF_STEREO_COUNT>
0

> <PUBCHEM_BOND_UDEF_STEREO_COUNT>
0

> <PUBCHEM_ISOTOPIC_ATOM_COUNT>
0

> <PUBCHEM_COMPONENT_COUNT>
1

> <PUBCHEM_CACTVS_TAUTO_COUNT>
1

> <PUBCHEM_COORDINATE_TYPE>
1

> <PUBCHEM_BONDANNOTATIONS>
10  12  8

$$$$
