4703871
  CDK     0224152114

 77 80  0  0  0  0  0  0  0  0999 V2000
    6.9938   -3.4689    0.0000 O   0  0  0  0  0  0  0  0  0  0  0  0
    6.7619    0.8403    0.0000 O   0  0  0  0  0  0  0  0  0  0  0  0
    5.3770   -2.0132    0.0000 O   0  0  0  0  0  0  0  0  0  0  0  0
   10.4329    1.9763    0.0000 O   0  0  0  0  0  0  0  0  0  0  0  0
   11.0510    0.0742    0.0000 O   0  0  0  0  0  0  0  0  0  0  0  0
    7.9643   -1.9744    0.0000 N   0  0  0  0  0  0  0  0  0  0  0  0
   10.0005   -4.7769    0.0000 N   0  0  0  0  0  0  0  0  0  0  0  0
    3.7320    0.4743    0.0000 N   0  0  0  0  0  0  0  0  0  0  0  0
    4.6783   -0.8304    0.0000 N   0  0  0  0  0  0  0  0  0  0  0  0
    7.7564   -0.9963    0.0000 C   0  0  3  0  0  0  0  0  0  0  0  0
    6.7619   -0.8917    0.0000 C   0  0  0  0  0  0  0  0  0  0  0  0
    8.8779   -2.3812    0.0000 C   0  0  0  0  0  0  0  0  0  0  0  0
    8.4255   -0.2531    0.0000 C   0  0  0  0  0  0  0  0  0  0  0  0
    7.0983   -2.4744    0.0000 C   0  0  0  0  0  0  0  0  0  0  0  0
    8.9824   -3.3757    0.0000 C   0  0  0  0  0  0  0  0  0  0  0  0
    6.3551   -1.8053    0.0000 C   0  0  0  0  0  0  0  0  0  0  0  0
    6.2619   -0.0257    0.0000 C   0  0  0  0  0  0  0  0  0  0  0  0
    9.8959   -3.7824    0.0000 C   0  0  0  0  0  0  0  0  0  0  0  0
    9.4037   -0.4610    0.0000 C   0  0  0  0  0  0  0  0  0  0  0  0
    5.2619   -0.0257    0.0000 C   0  0  0  0  0  0  0  0  0  0  0  0
    8.1165    0.6979    0.0000 C   0  0  0  0  0  0  0  0  0  0  0  0
    4.6783    0.7790    0.0000 C   0  0  0  0  0  0  0  0  0  0  0  0
   10.0728    0.2821    0.0000 C   0  0  0  0  0  0  0  0  0  0  0  0
    8.7856    1.4411    0.0000 C   0  0  0  0  0  0  0  0  0  0  0  0
    3.7320   -0.5257    0.0000 C   0  0  0  0  0  0  0  0  0  0  0  0
    9.7638    1.2332    0.0000 C   0  0  0  0  0  0  0  0  0  0  0  0
    4.9889    1.7295    0.0000 C   0  0  0  0  0  0  0  0  0  0  0  0
    2.8660   -1.0257    0.0000 C   0  0  0  0  0  0  0  0  0  0  0  0
   10.9140   -5.1837    0.0000 C   0  0  0  0  0  0  0  0  0  0  0  0
    9.1914   -5.3647    0.0000 C   0  0  0  0  0  0  0  0  0  0  0  0
    2.8660    0.9743    0.0000 C   0  0  0  0  0  0  0  0  0  0  0  0
    2.0000   -0.5257    0.0000 C   0  0  0  0  0  0  0  0  0  0  0  0
    2.0000    0.4743    0.0000 C   0  0  0  0  0  0  0  0  0  0  0  0
   10.1239    2.9274    0.0000 C   0  0  0  0  0  0  0  0  0  0  0  0
    2.8660   -2.0257    0.0000 C   0  0  0  0  0  0  0  0  0  0  0  0
   10.7930    3.6705    0.0000 C   0  0  0  0  0  0  0  0  0  0  0  0
   10.4840    4.6216    0.0000 C   0  0  0  0  0  0  0  0  0  0  0  0
   11.7201    0.8173    0.0000 C   0  0  0  0  0  0  0  0  0  0  0  0
   11.1532    5.3647    0.0000 C   0  0  0  0  0  0  0  0  0  0  0  0
    7.5342   -0.4174    0.0000 H   0  0  0  0  0  0  0  0  0  0  0  0
    9.4964   -2.4244    0.0000 H   0  0  0  0  0  0  0  0  0  0  0  0
    9.0279   -1.7796    0.0000 H   0  0  0  0  0  0  0  0  0  0  0  0
    8.3639   -3.3324    0.0000 H   0  0  0  0  0  0  0  0  0  0  0  0
    8.8324   -3.9773    0.0000 H   0  0  0  0  0  0  0  0  0  0  0  0
   10.5144   -3.8257    0.0000 H   0  0  0  0  0  0  0  0  0  0  0  0
   10.0459   -3.1808    0.0000 H   0  0  0  0  0  0  0  0  0  0  0  0
    9.5953   -1.0507    0.0000 H   0  0  0  0  0  0  0  0  0  0  0  0
    7.5101    0.8268    0.0000 H   0  0  0  0  0  0  0  0  0  0  0  0
    8.5941    2.0307    0.0000 H   0  0  0  0  0  0  0  0  0  0  0  0
    6.4519    1.3772    0.0000 H   0  0  0  0  0  0  0  0  0  0  0  0
    5.5783    1.5369    0.0000 H   0  0  0  0  0  0  0  0  0  0  0  0
    5.1815    2.3189    0.0000 H   0  0  0  0  0  0  0  0  0  0  0  0
    4.3996    1.9222    0.0000 H   0  0  0  0  0  0  0  0  0  0  0  0
   10.6618   -5.7501    0.0000 H   0  0  0  0  0  0  0  0  0  0  0  0
   11.4804   -5.4358    0.0000 H   0  0  0  0  0  0  0  0  0  0  0  0
   11.1662   -4.6173    0.0000 H   0  0  0  0  0  0  0  0  0  0  0  0
    8.8270   -4.8631    0.0000 H   0  0  0  0  0  0  0  0  0  0  0  0
    8.6898   -5.7291    0.0000 H   0  0  0  0  0  0  0  0  0  0  0  0
    9.5559   -5.8663    0.0000 H   0  0  0  0  0  0  0  0  0  0  0  0
    2.8660    1.5943    0.0000 H   0  0  0  0  0  0  0  0  0  0  0  0
    1.4631   -0.8357    0.0000 H   0  0  0  0  0  0  0  0  0  0  0  0
    1.4631    0.7843    0.0000 H   0  0  0  0  0  0  0  0  0  0  0  0
    9.7422    3.4159    0.0000 H   0  0  0  0  0  0  0  0  0  0  0  0
    9.5765    2.6363    0.0000 H   0  0  0  0  0  0  0  0  0  0  0  0
    2.2460   -2.0257    0.0000 H   0  0  0  0  0  0  0  0  0  0  0  0
    2.8660   -2.6457    0.0000 H   0  0  0  0  0  0  0  0  0  0  0  0
    3.4860   -2.0257    0.0000 H   0  0  0  0  0  0  0  0  0  0  0  0
   11.1747    3.1820    0.0000 H   0  0  0  0  0  0  0  0  0  0  0  0
   11.3405    3.9616    0.0000 H   0  0  0  0  0  0  0  0  0  0  0  0
   10.1023    5.1101    0.0000 H   0  0  0  0  0  0  0  0  0  0  0  0
    9.9366    4.3305    0.0000 H   0  0  0  0  0  0  0  0  0  0  0  0
   12.1808    0.4025    0.0000 H   0  0  0  0  0  0  0  0  0  0  0  0
   12.1349    1.2781    0.0000 H   0  0  0  0  0  0  0  0  0  0  0  0
   11.2593    1.2322    0.0000 H   0  0  0  0  0  0  0  0  0  0  0  0
   11.6139    4.9498    0.0000 H   0  0  0  0  0  0  0  0  0  0  0  0
   11.5680    5.8255    0.0000 H   0  0  0  0  0  0  0  0  0  0  0  0
   10.6924    5.7796    0.0000 H   0  0  0  0  0  0  0  0  0  0  0  0
  1 14  2  0  0  0  0 
  2 17  1  0  0  0  0 
  2 50  1  0  0  0  0 
  3 16  2  0  0  0  0 
  4 26  1  0  0  0  0 
  4 34  1  0  0  0  0 
  5 23  1  0  0  0  0 
  5 38  1  0  0  0  0 
  6 10  1  0  0  0  0 
  6 12  1  0  0  0  0 
  6 14  1  0  0  0  0 
  7 18  1  0  0  0  0 
  7 29  1  0  0  0  0 
  7 30  1  0  0  0  0 
  8 22  1  0  0  0  0 
  8 25  1  0  0  0  0 
  8 31  1  0  0  0  0 
  9 20  1  0  0  0  0 
  9 25  2  0  0  0  0 
 10 11  1  0  0  0  0 
 10 13  1  0  0  0  0 
 10 40  1  0  0  0  0 
 11 16  1  0  0  0  0 
 11 17  2  3  0  0  0 
 12 15  1  0  0  0  0 
 12 41  1  0  0  0  0 
 12 42  1  0  0  0  0 
 13 19  2  0  0  0  0 
 13 21  1  0  0  0  0 
 14 16  1  0  0  0  0 
 15 18  1  0  0  0  0 
 15 43  1  0  0  0  0 
 15 44  1  0  0  0  0 
 17 20  1  0  0  0  0 
 18 45  1  0  0  0  0 
 18 46  1  0  0  0  0 
 19 23  1  0  0  0  0 
 19 47  1  0  0  0  0 
 20 22  2  0  0  0  0 
 21 24  2  0  0  0  0 
 21 48  1  0  0  0  0 
 22 27  1  0  0  0  0 
 23 26  2  0  0  0  0 
 24 26  1  0  0  0  0 
 24 49  1  0  0  0  0 
 25 28  1  0  0  0  0 
 27 51  1  0  0  0  0 
 27 52  1  0  0  0  0 
 27 53  1  0  0  0  0 
 28 32  2  0  0  0  0 
 28 35  1  0  0  0  0 
 29 54  1  0  0  0  0 
 29 55  1  0  0  0  0 
 29 56  1  0  0  0  0 
 30 57  1  0  0  0  0 
 30 58  1  0  0  0  0 
 30 59  1  0  0  0  0 
 31 33  2  0  0  0  0 
 31 60  1  0  0  0  0 
 32 33  1  0  0  0  0 
 32 61  1  0  0  0  0 
 33 62  1  0  0  0  0 
 34 36  1  0  0  0  0 
 34 63  1  0  0  0  0 
 34 64  1  0  0  0  0 
 35 65  1  0  0  0  0 
 35 66  1  0  0  0  0 
 35 67  1  0  0  0  0 
 36 37  1  0  0  0  0 
 36 68  1  0  0  0  0 
 36 69  1  0  0  0  0 
 37 39  1  0  0  0  0 
 37 70  1  0  0  0  0 
 37 71  1  0  0  0  0 
 38 72  1  0  0  0  0 
 38 73  1  0  0  0  0 
 38 74  1  0  0  0  0 
 39 75  1  0  0  0  0 
 39 76  1  0  0  0  0 
 39 77  1  0  0  0  0 
M  END
> <cdk:Title>
4703871

> <cdk:Remark>
null

> <PUBCHEM_COMPOUND_CID>
4703871

> <PUBCHEM_COMPOUND_CANONICALIZED>
1

> <PUBCHEM_CACTVS_COMPLEXITY>
895

> <PUBCHEM_CACTVS_HBOND_ACCEPTOR>
7

> <PUBCHEM_CACTVS_HBOND_DONOR>
1

> <PUBCHEM_CACTVS_ROTATABLE_BOND>
11

> <PUBCHEM_CACTVS_SUBSKEYS>
AAADcfB7uAAAAAAAAAAAAAAAAAAAAWLAAAA8QAAAAAAAAFgB8AAAHgAACAAADCzhnwY/tp8MHgCoA7d3dASCiC0xMqAJ2CG+/NiPbvrE+buWeCruxhPa+Se82LOOIAABAAAAQABAAAIAAACAAAAAAAAAAA==

> <PUBCHEM_IUPAC_OPENEYE_NAME>
5-(4-butoxy-3-methoxy-phenyl)-1-[3-(dimethylamino)propyl]-4-[(3,8-dimethylimidazo[1,2-a]pyridin-2-yl)-hydroxy-methylene]pyrrolidine-2,3-dione

> <PUBCHEM_IUPAC_CAS_NAME>
5-(4-butoxy-3-methoxyphenyl)-1-[3-(dimethylamino)propyl]-4-[(3,8-dimethyl-2-imidazo[1,2-a]pyridinyl)-hydroxymethylidene]pyrrolidine-2,3-dione

> <PUBCHEM_IUPAC_NAME>
5-(4-butoxy-3-methoxyphenyl)-1-[3-(dimethylamino)propyl]-4-[(3,8-dimethylimidazo[1,2-a]pyridin-2-yl)-hydroxymethylidene]pyrrolidine-2,3-dione

> <PUBCHEM_IUPAC_SYSTEMATIC_NAME>
5-(4-butoxy-3-methoxy-phenyl)-1-[3-(dimethylamino)propyl]-4-[(3,8-dimethylimidazo[1,2-a]pyridin-2-yl)-oxidanyl-methylidene]pyrrolidine-2,3-dione

> <PUBCHEM_IUPAC_TRADITIONAL_NAME>
5-(4-butoxy-3-methoxy-phenyl)-1-[3-(dimethylamino)propyl]-4-[(3,8-dimethylimidazo[1,2-a]pyridin-2-yl)-hydroxy-methylene]pyrrolidine-2,3-quinone

> <PUBCHEM_IUPAC_INCHI>
InChI=1S/C30H38N4O5/c1-7-8-17-39-22-13-12-21(18-23(22)38-6)26-24(28(36)30(37)34(26)16-10-14-32(4)5)27(35)25-20(3)33-15-9-11-19(2)29(33)31-25/h9,11-13,15,18,26,35H,7-8,10,14,16-17H2,1-6H3

> <PUBCHEM_IUPAC_INCHIKEY>
OPDGLOKUYPFIGT-UHFFFAOYSA-N

> <PUBCHEM_XLOGP3_AA>
5.2

> <PUBCHEM_EXACT_MASS>
534.28422

> <PUBCHEM_MOLECULAR_FORMULA>
C30H38N4O5

> <PUBCHEM_MOLECULAR_WEIGHT>
534.64652

> <PUBCHEM_OPENEYE_CAN_SMILES>
CCCCOC1=C(C=C(C=C1)C2C(=C(C3=C(N4C=CC=C(C4=N3)C)C)O)C(=O)C(=O)N2CCCN(C)C)OC

> <PUBCHEM_OPENEYE_ISO_SMILES>
CCCCOC1=C(C=C(C=C1)C2C(=C(C3=C(N4C=CC=C(C4=N3)C)C)O)C(=O)C(=O)N2CCCN(C)C)OC

> <PUBCHEM_CACTVS_TPSA>
96.6

> <PUBCHEM_MONOISOTOPIC_WEIGHT>
534.28422

> <PUBCHEM_TOTAL_CHARGE>
0

> <PUBCHEM_HEAVY_ATOM_COUNT>
39

> <PUBCHEM_ATOM_DEF_STEREO_COUNT>
0

> <PUBCHEM_ATOM_UDEF_STEREO_COUNT>
1

> <PUBCHEM_BOND_DEF_STEREO_COUNT>
0

> <PUBCHEM_BOND_UDEF_STEREO_COUNT>
1

> <PUBCHEM_ISOTOPIC_ATOM_COUNT>
0

> <PUBCHEM_COMPONENT_COUNT>
1

> <PUBCHEM_CACTVS_TAUTO_COUNT>
19

> <PUBCHEM_COORDINATE_TYPE>
1

> <PUBCHEM_BONDANNOTATIONS>
10  13  3

$$$$
