45543559
  CDK     1229141516

 45 47  0  0  0  0  0  0  0  0999 V2000
    9.8547   -3.8198    0.0000 S   0  0  0  0  0  0  0  0  0  0  0  0
    9.6485   -4.7984    0.0000 O   0  0  0  0  0  0  0  0  0  0  0  0
   10.0609   -2.8414    0.0000 O   0  0  0  0  0  0  0  0  0  0  0  0
    7.2764   -1.5064    0.0000 N   0  0  0  0  0  0  0  0  0  0  0  0
    5.4641    1.2984    0.0000 N   0  0  0  0  0  0  0  0  0  0  0  0
    8.8762   -3.6136    0.0000 N   0  0  0  0  0  0  0  0  0  0  0  0
    7.8600   -0.7016    0.0000 N   0  0  0  0  0  0  0  0  0  0  0  0
    5.4641   -1.7016    0.0000 N   0  0  0  0  0  0  0  0  0  0  0  0
    4.5981   -0.2016    0.0000 N   0  0  0  0  0  0  0  0  0  0  0  0
    7.5870   -2.4569    0.0000 C   0  0  0  0  0  0  0  0  0  0  0  0
    6.3301   -1.2016    0.0000 C   0  0  0  0  0  0  0  0  0  0  0  0
    6.3301   -0.2016    0.0000 C   0  0  0  0  0  0  0  0  0  0  0  0
    8.5655   -2.6631    0.0000 C   0  0  0  0  0  0  0  0  0  0  0  0
    5.4641    0.2984    0.0000 C   0  0  0  0  0  0  0  0  0  0  0  0
    4.5981    1.7984    0.0000 C   0  0  0  0  0  0  0  0  0  0  0  0
    4.5981    2.7984    0.0000 C   0  0  0  0  0  0  0  0  0  0  0  0
    7.2764    0.1031    0.0000 C   0  0  0  0  0  0  0  0  0  0  0  0
    3.7320    3.2984    0.0000 C   0  0  0  0  0  0  0  0  0  0  0  0
    4.5981   -1.2016    0.0000 C   0  0  0  0  0  0  0  0  0  0  0  0
   10.8332   -4.0261    0.0000 C   0  0  0  0  0  0  0  0  0  0  0  0
    3.7320    4.2984    0.0000 C   0  0  0  0  0  0  0  0  0  0  0  0
    2.8660    2.7984    0.0000 C   0  0  0  0  0  0  0  0  0  0  0  0
    2.8660    4.7984    0.0000 C   0  0  0  0  0  0  0  0  0  0  0  0
    2.0000    3.2984    0.0000 C   0  0  0  0  0  0  0  0  0  0  0  0
    2.0000    4.2984    0.0000 C   0  0  0  0  0  0  0  0  0  0  0  0
    6.9732   -2.5442    0.0000 H   0  0  0  0  0  0  0  0  0  0  0  0
    7.5664   -3.0766    0.0000 H   0  0  0  0  0  0  0  0  0  0  0  0
    9.1793   -2.5758    0.0000 H   0  0  0  0  0  0  0  0  0  0  0  0
    8.5861   -2.0434    0.0000 H   0  0  0  0  0  0  0  0  0  0  0  0
    3.9875    1.9060    0.0000 H   0  0  0  0  0  0  0  0  0  0  0  0
    4.3860    1.2158    0.0000 H   0  0  0  0  0  0  0  0  0  0  0  0
    5.2087    2.6907    0.0000 H   0  0  0  0  0  0  0  0  0  0  0  0
    4.8101    3.3810    0.0000 H   0  0  0  0  0  0  0  0  0  0  0  0
    6.0010    1.6084    0.0000 H   0  0  0  0  0  0  0  0  0  0  0  0
    7.4690    0.6924    0.0000 H   0  0  0  0  0  0  0  0  0  0  0  0
    8.4621   -4.0751    0.0000 H   0  0  0  0  0  0  0  0  0  0  0  0
    4.0611   -1.5116    0.0000 H   0  0  0  0  0  0  0  0  0  0  0  0
   10.7053   -4.6327    0.0000 H   0  0  0  0  0  0  0  0  0  0  0  0
   11.4399   -4.1539    0.0000 H   0  0  0  0  0  0  0  0  0  0  0  0
   10.9610   -3.4194    0.0000 H   0  0  0  0  0  0  0  0  0  0  0  0
    4.2690    4.6084    0.0000 H   0  0  0  0  0  0  0  0  0  0  0  0
    2.8660    2.1784    0.0000 H   0  0  0  0  0  0  0  0  0  0  0  0
    2.8660    5.4184    0.0000 H   0  0  0  0  0  0  0  0  0  0  0  0
    1.4631    2.9884    0.0000 H   0  0  0  0  0  0  0  0  0  0  0  0
    1.4631    4.6084    0.0000 H   0  0  0  0  0  0  0  0  0  0  0  0
  1  2  2  0  0  0  0 
  1  3  2  0  0  0  0 
  1  6  1  0  0  0  0 
  1 20  1  0  0  0  0 
  4  7  1  0  0  0  0 
  4 10  1  0  0  0  0 
  4 11  1  0  0  0  0 
  5 14  1  0  0  0  0 
  5 15  1  0  0  0  0 
  5 34  1  0  0  0  0 
  6 13  1  0  0  0  0 
  6 36  1  0  0  0  0 
  7 17  2  0  0  0  0 
  8 11  2  0  0  0  0 
  8 19  1  0  0  0  0 
  9 14  1  0  0  0  0 
  9 19  2  0  0  0  0 
 10 13  1  0  0  0  0 
 10 26  1  0  0  0  0 
 10 27  1  0  0  0  0 
 11 12  1  0  0  0  0 
 12 14  2  0  0  0  0 
 12 17  1  0  0  0  0 
 13 28  1  0  0  0  0 
 13 29  1  0  0  0  0 
 15 16  1  0  0  0  0 
 15 30  1  0  0  0  0 
 15 31  1  0  0  0  0 
 16 18  1  0  0  0  0 
 16 32  1  0  0  0  0 
 16 33  1  0  0  0  0 
 17 35  1  0  0  0  0 
 18 21  2  0  0  0  0 
 18 22  1  0  0  0  0 
 19 37  1  0  0  0  0 
 20 38  1  0  0  0  0 
 20 39  1  0  0  0  0 
 20 40  1  0  0  0  0 
 21 23  1  0  0  0  0 
 21 41  1  0  0  0  0 
 22 24  2  0  0  0  0 
 22 42  1  0  0  0  0 
 23 25  2  0  0  0  0 
 23 43  1  0  0  0  0 
 24 25  1  0  0  0  0 
 24 44  1  0  0  0  0 
 25 45  1  0  0  0  0 
M  END
> <cdk:Title>
45543559

> <cdk:Remark>
null

> <PUBCHEM_COMPOUND_CID>
45543559

> <PUBCHEM_COMPOUND_CANONICALIZED>
1

> <PUBCHEM_CACTVS_COMPLEXITY>
505

> <PUBCHEM_CACTVS_HBOND_ACCEPTOR>
7

> <PUBCHEM_CACTVS_HBOND_DONOR>
2

> <PUBCHEM_CACTVS_ROTATABLE_BOND>
8

> <PUBCHEM_CACTVS_SUBSKEYS>
AAADceB7sABAAAAAAAAAAAAAAAAAAWAAAAA8QAAAAAAAAFgB/AAAHAQYQAAADADBGwS/sN7IEAKiAjJnZHCShCsxgKAd2KAoRJiIaKLA2VGUpAgomALIiCcQgIAOAAAAAAAAAAAAAAAAAAAAAAAAAAAAAA==

> <PUBCHEM_IUPAC_OPENEYE_NAME>
N-[2-[4-(2-phenylethylamino)pyrazolo[3,4-d]pyrimidin-1-yl]ethyl]methanesulfonamide

> <PUBCHEM_IUPAC_CAS_NAME>
N-[2-[4-(2-phenylethylamino)-1-pyrazolo[3,4-d]pyrimidinyl]ethyl]methanesulfonamide

> <PUBCHEM_IUPAC_NAME>
N-[2-[4-(2-phenylethylamino)pyrazolo[3,4-d]pyrimidin-1-yl]ethyl]methanesulfonamide

> <PUBCHEM_IUPAC_SYSTEMATIC_NAME>
N-[2-[4-(2-phenylethylamino)pyrazolo[3,4-d]pyrimidin-1-yl]ethyl]methanesulfonamide

> <PUBCHEM_IUPAC_TRADITIONAL_NAME>
N-[2-[4-(phenethylamino)pyrazolo[3,4-d]pyrimidin-1-yl]ethyl]methanesulfonamide

> <PUBCHEM_IUPAC_INCHI>
InChI=1S/C16H20N6O2S/c1-25(23,24)21-9-10-22-16-14(11-20-22)15(18-12-19-16)17-8-7-13-5-3-2-4-6-13/h2-6,11-12,21H,7-10H2,1H3,(H,17,18,19)

> <PUBCHEM_IUPAC_INCHIKEY>
PSLQUHUIQFNWJI-UHFFFAOYSA-N

> <PUBCHEM_XLOGP3_AA>
1.5

> <PUBCHEM_EXACT_MASS>
360.136845

> <PUBCHEM_MOLECULAR_FORMULA>
C16H20N6O2S

> <PUBCHEM_MOLECULAR_WEIGHT>
360.434

> <PUBCHEM_OPENEYE_CAN_SMILES>
CS(=O)(=O)NCCN1C2=C(C=N1)C(=NC=N2)NCCC3=CC=CC=C3

> <PUBCHEM_OPENEYE_ISO_SMILES>
CS(=O)(=O)NCCN1C2=C(C=N1)C(=NC=N2)NCCC3=CC=CC=C3

> <PUBCHEM_CACTVS_TPSA>
110

> <PUBCHEM_MONOISOTOPIC_WEIGHT>
360.136845

> <PUBCHEM_TOTAL_CHARGE>
0

> <PUBCHEM_HEAVY_ATOM_COUNT>
25

> <PUBCHEM_ATOM_DEF_STEREO_COUNT>
0

> <PUBCHEM_ATOM_UDEF_STEREO_COUNT>
0

> <PUBCHEM_BOND_DEF_STEREO_COUNT>
0

> <PUBCHEM_BOND_UDEF_STEREO_COUNT>
0

> <PUBCHEM_ISOTOPIC_ATOM_COUNT>
0

> <PUBCHEM_COMPONENT_COUNT>
1

> <PUBCHEM_CACTVS_TAUTO_COUNT>
5

> <PUBCHEM_COORDINATE_TYPE>
1

> <PUBCHEM_BONDANNOTATIONS>
11  12  8

$$$$
33889401
  CDK     1229141516

 49 51  0  0  0  0  0  0  0  0999 V2000
    4.6783   -1.2592    0.0000 S   0  0  0  0  0  0  0  0  0  0  0  0
    8.2619   -2.1866    0.0000 S   0  0  0  0  0  0  0  0  0  0  0  0
    9.8497   -1.3775    0.0000 S   0  0  0  0  0  0  0  0  0  0  0  0
    4.3211    2.0450    0.0000 O   0  0  0  0  0  0  0  0  0  0  0  0
    5.9674    1.5070    0.0000 O   0  0  0  0  0  0  0  0  0  0  0  0
    6.2619   -2.1866    0.0000 O   0  0  0  0  0  0  0  0  0  0  0  0
    6.2619   -0.4545    0.0000 N   0  0  0  0  0  0  0  0  0  0  0  0
   11.6097   -1.0988    0.0000 N   0  0  0  0  0  0  0  0  0  0  0  0
   10.8007   -2.6866    0.0000 N   0  0  0  0  0  0  0  0  0  0  0  0
    9.8497   -2.9956    0.0000 N   0  0  0  0  0  0  0  0  0  0  0  0
    2.0000    0.0455    0.0000 C   0  0  0  0  0  0  0  0  0  0  0  0
    2.8660    0.5455    0.0000 C   0  0  0  0  0  0  0  0  0  0  0  0
    2.0000   -0.9545    0.0000 C   0  0  0  0  0  0  0  0  0  0  0  0
    3.7320    0.0455    0.0000 C   0  0  0  0  0  0  0  0  0  0  0  0
    2.8660   -1.4545    0.0000 C   0  0  0  0  0  0  0  0  0  0  0  0
    3.7320   -0.9545    0.0000 C   0  0  0  0  0  0  0  0  0  0  0  0
    4.6783    0.3502    0.0000 C   0  0  0  0  0  0  0  0  0  0  0  0
    5.2619   -0.4545    0.0000 C   0  0  0  0  0  0  0  0  0  0  0  0
    4.9889    1.3008    0.0000 C   0  0  0  0  0  0  0  0  0  0  0  0
    6.7619   -1.3205    0.0000 C   0  0  0  0  0  0  0  0  0  0  0  0
    7.7619   -1.3205    0.0000 C   0  0  0  0  0  0  0  0  0  0  0  0
    4.6318    2.9956    0.0000 C   0  0  0  0  0  0  0  0  0  0  0  0
   12.5233   -1.5055    0.0000 C   0  0  0  0  0  0  0  0  0  0  0  0
   13.3323   -0.9177    0.0000 C   0  0  0  0  0  0  0  0  0  0  0  0
   14.2458   -1.3245    0.0000 C   0  0  0  0  0  0  0  0  0  0  0  0
    9.2619   -2.1866    0.0000 C   0  0  0  0  0  0  0  0  0  0  0  0
   10.8007   -1.6866    0.0000 C   0  0  0  0  0  0  0  0  0  0  0  0
    1.7880    0.6281    0.0000 H   0  0  0  0  0  0  0  0  0  0  0  0
    1.3894   -0.0622    0.0000 H   0  0  0  0  0  0  0  0  0  0  0  0
    3.2646    1.0204    0.0000 H   0  0  0  0  0  0  0  0  0  0  0  0
    2.4675    1.0204    0.0000 H   0  0  0  0  0  0  0  0  0  0  0  0
    1.3894   -0.8468    0.0000 H   0  0  0  0  0  0  0  0  0  0  0  0
    1.7880   -1.5371    0.0000 H   0  0  0  0  0  0  0  0  0  0  0  0
    2.4675   -1.9294    0.0000 H   0  0  0  0  0  0  0  0  0  0  0  0
    3.2646   -1.9294    0.0000 H   0  0  0  0  0  0  0  0  0  0  0  0
    6.5719    0.0824    0.0000 H   0  0  0  0  0  0  0  0  0  0  0  0
    8.3445   -1.1085    0.0000 H   0  0  0  0  0  0  0  0  0  0  0  0
    7.6542   -0.7099    0.0000 H   0  0  0  0  0  0  0  0  0  0  0  0
    5.2211    2.8030    0.0000 H   0  0  0  0  0  0  0  0  0  0  0  0
    4.8244    3.5849    0.0000 H   0  0  0  0  0  0  0  0  0  0  0  0
    4.0424    3.1882    0.0000 H   0  0  0  0  0  0  0  0  0  0  0  0
   12.1766   -2.0195    0.0000 H   0  0  0  0  0  0  0  0  0  0  0  0
   12.9693   -1.9362    0.0000 H   0  0  0  0  0  0  0  0  0  0  0  0
   13.6790   -0.4037    0.0000 H   0  0  0  0  0  0  0  0  0  0  0  0
   12.8863   -0.4870    0.0000 H   0  0  0  0  0  0  0  0  0  0  0  0
   11.5449   -0.4822    0.0000 H   0  0  0  0  0  0  0  0  0  0  0  0
   13.9937   -1.8909    0.0000 H   0  0  0  0  0  0  0  0  0  0  0  0
   14.8122   -1.5766    0.0000 H   0  0  0  0  0  0  0  0  0  0  0  0
   14.4980   -0.7581    0.0000 H   0  0  0  0  0  0  0  0  0  0  0  0
  1 16  1  0  0  0  0 
  1 18  1  0  0  0  0 
  2 21  1  0  0  0  0 
  2 26  1  0  0  0  0 
  3 26  1  0  0  0  0 
  3 27  1  0  0  0  0 
  4 19  1  0  0  0  0 
  4 22  1  0  0  0  0 
  5 19  2  0  0  0  0 
  6 20  2  0  0  0  0 
  7 18  1  0  0  0  0 
  7 20  1  0  0  0  0 
  7 36  1  0  0  0  0 
  8 23  1  0  0  0  0 
  8 27  1  0  0  0  0 
  8 46  1  0  0  0  0 
  9 10  1  0  0  0  0 
  9 27  2  0  0  0  0 
 10 26  2  0  0  0  0 
 11 12  1  0  0  0  0 
 11 13  1  0  0  0  0 
 11 28  1  0  0  0  0 
 11 29  1  0  0  0  0 
 12 14  1  0  0  0  0 
 12 30  1  0  0  0  0 
 12 31  1  0  0  0  0 
 13 15  1  0  0  0  0 
 13 32  1  0  0  0  0 
 13 33  1  0  0  0  0 
 14 16  2  0  0  0  0 
 14 17  1  0  0  0  0 
 15 16  1  0  0  0  0 
 15 34  1  0  0  0  0 
 15 35  1  0  0  0  0 
 17 18  2  0  0  0  0 
 17 19  1  0  0  0  0 
 20 21  1  0  0  0  0 
 21 37  1  0  0  0  0 
 21 38  1  0  0  0  0 
 22 39  1  0  0  0  0 
 22 40  1  0  0  0  0 
 22 41  1  0  0  0  0 
 23 24  1  0  0  0  0 
 23 42  1  0  0  0  0 
 23 43  1  0  0  0  0 
 24 25  1  0  0  0  0 
 24 44  1  0  0  0  0 
 24 45  1  0  0  0  0 
 25 47  1  0  0  0  0 
 25 48  1  0  0  0  0 
 25 49  1  0  0  0  0 
M  END
> <cdk:Title>
33889401

> <cdk:Remark>
null

> <PUBCHEM_COMPOUND_CID>
33889401

> <PUBCHEM_COMPOUND_CANONICALIZED>
1

> <PUBCHEM_CACTVS_COMPLEXITY>
528

> <PUBCHEM_CACTVS_HBOND_ACCEPTOR>
9

> <PUBCHEM_CACTVS_HBOND_DONOR>
2

> <PUBCHEM_CACTVS_ROTATABLE_BOND>
9

> <PUBCHEM_CACTVS_SUBSKEYS>
AAADceB7sABgAAAAAAAAAAAAAAAAAWJAAAAwAAAAAAAAAEgB4AAAHgQYAAAADADF2AaDmYLABAiuAgHQeACTAYJlCBkFiJEITMiIJjrgvJmEEYh21APo6UeYyOCOgAAAAAAAAAAAAAAAAAgAAAAAAAAAAA==

> <PUBCHEM_IUPAC_OPENEYE_NAME>
methyl 2-[[2-[[5-(propylamino)-1,3,4-thiadiazol-2-yl]sulfanyl]acetyl]amino]-4,5,6,7-tetrahydrobenzothiophene-3-carboxylate

> <PUBCHEM_IUPAC_CAS_NAME>
2-[[1-oxo-2-[[5-(propylamino)-1,3,4-thiadiazol-2-yl]thio]ethyl]amino]-4,5,6,7-tetrahydro-1-benzothiophene-3-carboxylic acid methyl ester

> <PUBCHEM_IUPAC_NAME>
methyl 2-[[2-[[5-(propylamino)-1,3,4-thiadiazol-2-yl]sulfanyl]acetyl]amino]-4,5,6,7-tetrahydro-1-benzothiophene-3-carboxylate

> <PUBCHEM_IUPAC_SYSTEMATIC_NAME>
methyl 2-[2-[[5-(propylamino)-1,3,4-thiadiazol-2-yl]sulfanyl]ethanoylamino]-4,5,6,7-tetrahydro-1-benzothiophene-3-carboxylate

> <PUBCHEM_IUPAC_TRADITIONAL_NAME>
2-[[2-[[5-(propylamino)-1,3,4-thiadiazol-2-yl]thio]acetyl]amino]-4,5,6,7-tetrahydrobenzothiophene-3-carboxylic acid methyl ester

> <PUBCHEM_IUPAC_INCHI>
InChI=1S/C17H22N4O3S3/c1-3-8-18-16-20-21-17(27-16)25-9-12(22)19-14-13(15(23)24-2)10-6-4-5-7-11(10)26-14/h3-9H2,1-2H3,(H,18,20)(H,19,22)

> <PUBCHEM_IUPAC_INCHIKEY>
DGHINAHTCKTXOA-UHFFFAOYSA-N

> <PUBCHEM_XLOGP3_AA>
5

> <PUBCHEM_EXACT_MASS>
426.085404

> <PUBCHEM_MOLECULAR_FORMULA>
C17H22N4O3S3

> <PUBCHEM_MOLECULAR_WEIGHT>
426.57658

> <PUBCHEM_OPENEYE_CAN_SMILES>
CCCNC1=NN=C(S1)SCC(=O)NC2=C(C3=C(S2)CCCC3)C(=O)OC

> <PUBCHEM_OPENEYE_ISO_SMILES>
CCCNC1=NN=C(S1)SCC(=O)NC2=C(C3=C(S2)CCCC3)C(=O)OC

> <PUBCHEM_CACTVS_TPSA>
175

> <PUBCHEM_MONOISOTOPIC_WEIGHT>
426.085404

> <PUBCHEM_TOTAL_CHARGE>
0

> <PUBCHEM_HEAVY_ATOM_COUNT>
27

> <PUBCHEM_ATOM_DEF_STEREO_COUNT>
0

> <PUBCHEM_ATOM_UDEF_STEREO_COUNT>
0

> <PUBCHEM_BOND_DEF_STEREO_COUNT>
0

> <PUBCHEM_BOND_UDEF_STEREO_COUNT>
0

> <PUBCHEM_ISOTOPIC_ATOM_COUNT>
0

> <PUBCHEM_COMPONENT_COUNT>
1

> <PUBCHEM_CACTVS_TAUTO_COUNT>
14

> <PUBCHEM_COORDINATE_TYPE>
1

> <PUBCHEM_BONDANNOTATIONS>
1  16  8

$$$$
9378350
  CDK     1229141516

 37 39  0  0  0  0  0  0  0  0999 V2000
    7.2559   -1.4615    0.0000 S   0  0  0  0  0  0  0  0  0  0  0  0
    5.6681   -0.6525    0.0000 S   0  0  0  0  0  0  0  0  0  0  0  0
    9.2559    2.2705    0.0000 O   0  0  0  0  0  0  0  0  0  0  0  0
    9.2559    0.2705    0.0000 N   0  0  0  0  0  0  0  0  0  0  0  0
    3.9081   -0.3737    0.0000 N   0  0  0  0  0  0  0  0  0  0  0  0
    4.7171   -1.9615    0.0000 N   0  0  0  0  0  0  0  0  0  0  0  0
    5.6681   -2.2705    0.0000 N   0  0  0  0  0  0  0  0  0  0  0  0
    2.9945   -0.7805    0.0000 C   0  0  0  0  0  0  0  0  0  0  0  0
    2.0000   -0.6759    0.0000 C   0  0  0  0  0  0  0  0  0  0  0  0
    2.4067   -1.5895    0.0000 C   0  0  0  0  0  0  0  0  0  0  0  0
   10.1220    0.7705    0.0000 C   0  0  0  0  0  0  0  0  0  0  0  0
    8.3899    0.7705    0.0000 C   0  0  0  0  0  0  0  0  0  0  0  0
    8.7559   -0.5955    0.0000 C   0  0  0  0  0  0  0  0  0  0  0  0
   10.1220    1.7705    0.0000 C   0  0  0  0  0  0  0  0  0  0  0  0
    8.3899    1.7705    0.0000 C   0  0  0  0  0  0  0  0  0  0  0  0
    7.7559   -0.5955    0.0000 C   0  0  0  0  0  0  0  0  0  0  0  0
    4.7171   -0.9615    0.0000 C   0  0  0  0  0  0  0  0  0  0  0  0
    6.2559   -1.4615    0.0000 C   0  0  0  0  0  0  0  0  0  0  0  0
    2.8975   -0.1681    0.0000 H   0  0  0  0  0  0  0  0  0  0  0  0
    1.9568   -0.0575    0.0000 H   0  0  0  0  0  0  0  0  0  0  0  0
    1.8927   -1.9362    0.0000 H   0  0  0  0  0  0  0  0  0  0  0  0
    2.8374   -2.0355    0.0000 H   0  0  0  0  0  0  0  0  0  0  0  0
    1.3984   -0.8259    0.0000 H   0  0  0  0  0  0  0  0  0  0  0  0
    9.5659   -0.2664    0.0000 H   0  0  0  0  0  0  0  0  0  0  0  0
   10.3340    0.1879    0.0000 H   0  0  0  0  0  0  0  0  0  0  0  0
   10.7325    0.8782    0.0000 H   0  0  0  0  0  0  0  0  0  0  0  0
    7.7793    0.8782    0.0000 H   0  0  0  0  0  0  0  0  0  0  0  0
    8.1778    0.1879    0.0000 H   0  0  0  0  0  0  0  0  0  0  0  0
    8.6483   -1.2061    0.0000 H   0  0  0  0  0  0  0  0  0  0  0  0
    9.3385   -0.8075    0.0000 H   0  0  0  0  0  0  0  0  0  0  0  0
    3.9729    0.2429    0.0000 H   0  0  0  0  0  0  0  0  0  0  0  0
   10.7325    1.6629    0.0000 H   0  0  0  0  0  0  0  0  0  0  0  0
   10.3340    2.3531    0.0000 H   0  0  0  0  0  0  0  0  0  0  0  0
    8.1778    2.3531    0.0000 H   0  0  0  0  0  0  0  0  0  0  0  0
    7.7793    1.6629    0.0000 H   0  0  0  0  0  0  0  0  0  0  0  0
    7.8636    0.0151    0.0000 H   0  0  0  0  0  0  0  0  0  0  0  0
    7.1733   -0.3834    0.0000 H   0  0  0  0  0  0  0  0  0  0  0  0
  1 16  1  0  0  0  0 
  1 18  1  0  0  0  0 
  2 17  1  0  0  0  0 
  2 18  1  0  0  0  0 
  3 14  1  0  0  0  0 
  3 15  1  0  0  0  0 
  4 11  1  0  0  0  0 
  4 12  1  0  0  0  0 
  4 13  1  0  0  0  0 
  4 24  1  0  0  0  0 
  5  8  1  0  0  0  0 
  5 17  1  0  0  0  0 
  5 31  1  0  0  0  0 
  6  7  1  0  0  0  0 
  6 17  2  0  0  0  0 
  7 18  2  0  0  0  0 
  8  9  1  0  0  0  0 
  8 10  1  0  0  0  0 
  8 19  1  0  0  0  0 
  9 10  1  0  0  0  0 
  9 20  1  0  0  0  0 
  9 23  1  0  0  0  0 
 10 21  1  0  0  0  0 
 10 22  1  0  0  0  0 
 11 14  1  0  0  0  0 
 11 25  1  0  0  0  0 
 11 26  1  0  0  0  0 
 12 15  1  0  0  0  0 
 12 27  1  0  0  0  0 
 12 28  1  0  0  0  0 
 13 16  1  0  0  0  0 
 13 29  1  0  0  0  0 
 13 30  1  0  0  0  0 
 14 32  1  0  0  0  0 
 14 33  1  0  0  0  0 
 15 34  1  0  0  0  0 
 15 35  1  0  0  0  0 
 16 36  1  0  0  0  0 
 16 37  1  0  0  0  0 
M  CHG  1   4   1
M  END
> <cdk:Title>
9378350

> <cdk:Remark>
null

> <PUBCHEM_COMPOUND_CID>
9378350

> <PUBCHEM_COMPOUND_CANONICALIZED>
1

> <PUBCHEM_CACTVS_COMPLEXITY>
261

> <PUBCHEM_CACTVS_HBOND_ACCEPTOR>
6

> <PUBCHEM_CACTVS_HBOND_DONOR>
2

> <PUBCHEM_CACTVS_ROTATABLE_BOND>
6

> <PUBCHEM_CACTVS_SUBSKEYS>
AAADceBzoABgAAAAAAAAAAAAGAAAAWAAAAAsAAAAAAAAAAABgAAAHgQYAAAACCjlwAaBEAPABAgmAAAAIAAQAQJAABkFAIAIAACCAAAACAAHAAAQEAKQAAAAAAAAAAAAAAAAAAAAAAAAAAAAAAAAAAAAAA==

> <PUBCHEM_IUPAC_OPENEYE_NAME>
N-cyclopropyl-5-(2-morpholin-4-ium-4-ylethylsulfanyl)-1,3,4-thiadiazol-2-amine

> <PUBCHEM_IUPAC_CAS_NAME>
N-cyclopropyl-5-[2-(4-morpholin-4-iumyl)ethylthio]-1,3,4-thiadiazol-2-amine

> <PUBCHEM_IUPAC_NAME>
N-cyclopropyl-5-(2-morpholin-4-ium-4-ylethylsulfanyl)-1,3,4-thiadiazol-2-amine

> <PUBCHEM_IUPAC_SYSTEMATIC_NAME>
N-cyclopropyl-5-(2-morpholin-4-ium-4-ylethylsulfanyl)-1,3,4-thiadiazol-2-amine

> <PUBCHEM_IUPAC_TRADITIONAL_NAME>
cyclopropyl-[5-(2-morpholin-4-ium-4-ylethylthio)-1,3,4-thiadiazol-2-yl]amine

> <PUBCHEM_IUPAC_INCHI>
InChI=1S/C11H18N4OS2/c1-2-9(1)12-10-13-14-11(18-10)17-8-5-15-3-6-16-7-4-15/h9H,1-8H2,(H,12,13)/p+1

> <PUBCHEM_IUPAC_INCHIKEY>
YUTQVXPQNPIHSD-UHFFFAOYSA-O

> <PUBCHEM_XLOGP3_AA>
1.7

> <PUBCHEM_EXACT_MASS>
287.100028

> <PUBCHEM_MOLECULAR_FORMULA>
C11H19N4OS2+

> <PUBCHEM_MOLECULAR_WEIGHT>
287.42476

> <PUBCHEM_OPENEYE_CAN_SMILES>
C1CC1NC2=NN=C(S2)SCC[NH+]3CCOCC3

> <PUBCHEM_OPENEYE_ISO_SMILES>
C1CC1NC2=NN=C(S2)SCC[NH+]3CCOCC3

> <PUBCHEM_CACTVS_TPSA>
105

> <PUBCHEM_MONOISOTOPIC_WEIGHT>
287.100028

> <PUBCHEM_TOTAL_CHARGE>
1

> <PUBCHEM_HEAVY_ATOM_COUNT>
18

> <PUBCHEM_ATOM_DEF_STEREO_COUNT>
0

> <PUBCHEM_ATOM_UDEF_STEREO_COUNT>
0

> <PUBCHEM_BOND_DEF_STEREO_COUNT>
0

> <PUBCHEM_BOND_UDEF_STEREO_COUNT>
0

> <PUBCHEM_ISOTOPIC_ATOM_COUNT>
0

> <PUBCHEM_COMPONENT_COUNT>
1

> <PUBCHEM_CACTVS_TAUTO_COUNT>
2

> <PUBCHEM_COORDINATE_TYPE>
1

> <PUBCHEM_BONDANNOTATIONS>
2  17  8

$$$$
