57247322
  CDK     0202151413

 38 39  0  0  0  0  0  0  0  0999 V2000
    8.4641   -1.4045    0.0000 Br  0  0  0  0  0  0  0  0  0  0  0  0
    6.7320    2.5955    0.0000 S   0  0  0  0  0  0  0  0  0  0  0  0
    5.0000    1.5955    0.0000 O   0  0  0  0  0  0  0  0  0  0  0  0
    7.7320    2.5955    0.0000 O   0  0  0  0  0  0  0  0  0  0  0  0
    5.7320    2.5955    0.0000 O   0  0  0  0  0  0  0  0  0  0  0  0
    5.3660   -0.7705    0.0000 N   0  0  0  0  0  0  0  0  0  0  0  0
    6.7320    3.5955    0.0000 N   0  0  0  0  0  0  0  0  0  0  0  0
    6.7320    1.5955    0.0000 C   0  0  0  0  0  0  0  0  0  0  0  0
    5.8660    1.0955    0.0000 C   0  0  0  0  0  0  0  0  0  0  0  0
    5.8660    0.0955    0.0000 C   0  0  0  0  0  0  0  0  0  0  0  0
    7.5981    0.0955    0.0000 C   0  0  0  0  0  0  0  0  0  0  0  0
    7.5981    1.0955    0.0000 C   0  0  0  0  0  0  0  0  0  0  0  0
    6.7320   -0.4045    0.0000 C   0  0  0  0  0  0  0  0  0  0  0  0
    8.4641   -0.4045    0.0000 C   0  0  0  0  0  0  0  0  0  0  0  0
    4.0000    1.5956    0.0000 C   0  0  0  0  0  0  0  0  0  0  0  0
    5.8661   -1.6365    0.0000 C   0  0  0  0  0  0  0  0  0  0  0  0
    3.5000    2.4616    0.0000 C   0  0  0  0  0  0  0  0  0  0  0  0
    3.5000    0.7295    0.0000 C   0  0  0  0  0  0  0  0  0  0  0  0
    2.5000    2.4616    0.0000 C   0  0  0  0  0  0  0  0  0  0  0  0
    2.5000    0.7295    0.0000 C   0  0  0  0  0  0  0  0  0  0  0  0
    2.0000    1.5956    0.0000 C   0  0  0  0  0  0  0  0  0  0  0  0
    5.3660   -2.5026    0.0000 C   0  0  0  0  0  0  0  0  0  0  0  0
    4.8660   -3.3686    0.0000 C   0  0  0  0  0  0  0  0  0  0  0  0
    8.1350    1.4055    0.0000 H   0  0  0  0  0  0  0  0  0  0  0  0
    6.7320   -1.0245    0.0000 H   0  0  0  0  0  0  0  0  0  0  0  0
    4.7460   -0.7704    0.0000 H   0  0  0  0  0  0  0  0  0  0  0  0
    9.0747   -0.5121    0.0000 H   0  0  0  0  0  0  0  0  0  0  0  0
    8.6762    0.1781    0.0000 H   0  0  0  0  0  0  0  0  0  0  0  0
    6.3410   -2.0351    0.0000 H   0  0  0  0  0  0  0  0  0  0  0  0
    6.3410   -1.2380    0.0000 H   0  0  0  0  0  0  0  0  0  0  0  0
    7.2690    3.9055    0.0000 H   0  0  0  0  0  0  0  0  0  0  0  0
    6.1951    3.9055    0.0000 H   0  0  0  0  0  0  0  0  0  0  0  0
    3.8101    2.9986    0.0000 H   0  0  0  0  0  0  0  0  0  0  0  0
    3.8100    0.1925    0.0000 H   0  0  0  0  0  0  0  0  0  0  0  0
    2.1900    2.9986    0.0000 H   0  0  0  0  0  0  0  0  0  0  0  0
    2.1900    0.1926    0.0000 H   0  0  0  0  0  0  0  0  0  0  0  0
    1.3800    1.5956    0.0000 H   0  0  0  0  0  0  0  0  0  0  0  0
    4.5560   -3.9055    0.0000 H   0  0  0  0  0  0  0  0  0  0  0  0
  1 14  1  0  0  0  0 
  2  4  2  0  0  0  0 
  2  5  2  0  0  0  0 
  2  7  1  0  0  0  0 
  2  8  1  0  0  0  0 
  3  9  1  0  0  0  0 
  3 15  1  0  0  0  0 
  6 10  1  0  0  0  0 
  6 16  1  0  0  0  0 
  6 26  1  0  0  0  0 
  7 31  1  0  0  0  0 
  7 32  1  0  0  0  0 
  8  9  1  0  0  0  0 
  8 12  2  0  0  0  0 
  9 10  2  0  0  0  0 
 10 13  1  0  0  0  0 
 11 12  1  0  0  0  0 
 11 13  2  0  0  0  0 
 11 14  1  0  0  0  0 
 12 24  1  0  0  0  0 
 13 25  1  0  0  0  0 
 14 27  1  0  0  0  0 
 14 28  1  0  0  0  0 
 15 17  2  0  0  0  0 
 15 18  1  0  0  0  0 
 16 22  1  0  0  0  0 
 16 29  1  0  0  0  0 
 16 30  1  0  0  0  0 
 17 19  1  0  0  0  0 
 17 33  1  0  0  0  0 
 18 20  2  0  0  0  0 
 18 34  1  0  0  0  0 
 19 21  2  0  0  0  0 
 19 35  1  0  0  0  0 
 20 21  1  0  0  0  0 
 20 36  1  0  0  0  0 
 21 37  1  0  0  0  0 
 22 23  3  0  0  0  0 
 23 38  1  0  0  0  0 
M  END
> <cdk:Title>
57247322

> <cdk:Remark>
null

> <PUBCHEM_COMPOUND_CID>
57247322

> <PUBCHEM_COMPOUND_CANONICALIZED>
1

> <PUBCHEM_CACTVS_COMPLEXITY>
519

> <PUBCHEM_CACTVS_HBOND_ACCEPTOR>
5

> <PUBCHEM_CACTVS_HBOND_DONOR>
2

> <PUBCHEM_CACTVS_ROTATABLE_BOND>
6

> <PUBCHEM_CACTVS_SUBSKEYS>
AAADccB7MABAEAAAAAAAAAAAAAAAAAAAAAAwYAAAAAAAAAABQAAAHgRQQAABTAzB2AQwx4LABALAGiRCQHDCCBAhIgAIiJoPbKgOJiLEsZuHOCzk0BHY6BeQwAAOIAAAwCAAMABAAAGAQABgAAAAAAAAAA==

> <PUBCHEM_IUPAC_OPENEYE_NAME>
5-(bromomethyl)-2-phenoxy-3-(prop-2-ynylamino)benzenesulfonamide

> <PUBCHEM_IUPAC_CAS_NAME>
5-(bromomethyl)-2-phenoxy-3-(prop-2-ynylamino)benzenesulfonamide

> <PUBCHEM_IUPAC_NAME>
5-(bromomethyl)-2-phenoxy-3-(prop-2-ynylamino)benzenesulfonamide

> <PUBCHEM_IUPAC_SYSTEMATIC_NAME>
5-(bromomethyl)-2-phenoxy-3-(prop-2-ynylamino)benzenesulfonamide

> <PUBCHEM_IUPAC_TRADITIONAL_NAME>
5-(bromomethyl)-2-phenoxy-3-(propargylamino)benzenesulfonamide

> <PUBCHEM_IUPAC_INCHI>
InChI=1S/C16H15BrN2O3S/c1-2-8-19-14-9-12(11-17)10-15(23(18,20)21)16(14)22-13-6-4-3-5-7-13/h1,3-7,9-10,19H,8,11H2,(H2,18,20,21)

> <PUBCHEM_IUPAC_INCHIKEY>
DWLYAESNVRJHBI-UHFFFAOYSA-N

> <PUBCHEM_XLOGP3_AA>
2.7

> <PUBCHEM_EXACT_MASS>
393.998675

> <PUBCHEM_MOLECULAR_FORMULA>
C16H15BrN2O3S

> <PUBCHEM_MOLECULAR_WEIGHT>
395.2709

> <PUBCHEM_OPENEYE_CAN_SMILES>
C#CCNC1=C(C(=CC(=C1)CBr)S(=O)(=O)N)OC2=CC=CC=C2

> <PUBCHEM_OPENEYE_ISO_SMILES>
C#CCNC1=C(C(=CC(=C1)CBr)S(=O)(=O)N)OC2=CC=CC=C2

> <PUBCHEM_CACTVS_TPSA>
89.8

> <PUBCHEM_MONOISOTOPIC_WEIGHT>
393.998675

> <PUBCHEM_TOTAL_CHARGE>
0

> <PUBCHEM_HEAVY_ATOM_COUNT>
23

> <PUBCHEM_ATOM_DEF_STEREO_COUNT>
0

> <PUBCHEM_ATOM_UDEF_STEREO_COUNT>
0

> <PUBCHEM_BOND_DEF_STEREO_COUNT>
0

> <PUBCHEM_BOND_UDEF_STEREO_COUNT>
0

> <PUBCHEM_ISOTOPIC_ATOM_COUNT>
0

> <PUBCHEM_COMPONENT_COUNT>
1

> <PUBCHEM_CACTVS_TAUTO_COUNT>
1

> <PUBCHEM_COORDINATE_TYPE>
1

> <PUBCHEM_BONDANNOTATIONS>
10  13  8

$$$$
