
  CDK     0202151410

 13 13  0  0  0  0  0  0  0  0999 V2000
    5.3147   -0.8988    0.0000 O   0  0  0  0  0  0  0  0  0  0  0  0
    7.9128    2.6012    0.0000 N   0  0  0  0  0  0  0  0  0  0  0  0
    7.0468    2.1012    0.0000 C   0  0  3  0  0  0  0  0  0  0  0  0
    7.0468    1.1012    0.0000 C   0  0  0  0  0  0  0  0  0  0  0  0
    6.1808    2.6012    0.0000 C   0  0  0  0  0  0  0  0  0  0  0  0
    4.4487   -2.3988    0.0000 C   0  0  0  0  0  0  0  0  0  0  0  0
    6.1808    0.6012    0.0000 C   0  0  0  0  0  0  0  0  0  0  0  0
    4.4487   -3.3988    0.0000 C   0  0  0  0  0  0  0  0  0  0  0  0
    6.1808   -0.3988    0.0000 C   0  0  0  0  0  0  0  0  0  0  0  0
    5.3147   -1.8988    0.0000 C   0  0  0  0  0  0  0  0  0  0  0  0
    7.9128    0.6012    0.0000 C   0  0  0  0  0  0  0  0  0  0  0  0
    7.0468   -0.8988    0.0000 C   0  0  0  0  0  0  0  0  0  0  0  0
    7.9128   -0.3988    0.0000 C   0  0  0  0  0  0  0  0  0  0  0  0
  1  9  1  0  0  0  0 
  1 10  1  0  0  0  0 
  2  3  1  0  0  0  0 
  3  4  1  0  0  0  0 
  3  5  1  0  0  0  0 
  4  7  1  0  0  0  0 
  4 11  1  0  0  0  0 
  6  8  1  0  0  0  0 
  6 10  1  0  0  0  0 
  7  9  1  0  0  0  0 
  9 12  1  0  0  0  0 
 11 13  1  0  0  0  0 
 12 13  1  0  0  0  0 
M  END
> <PUBCHEM_COMPOUND_CID>
61494774

$$$$
