1525165
  CDK     0224152114

 52 55  0  0  0  0  0  0  0  0999 V2000
    6.9100    1.5764    0.0000 O   0  0  0  0  0  0  0  0  0  0  0  0
    5.4543   -0.0403    0.0000 O   0  0  0  0  0  0  0  0  0  0  0  0
    2.6008    1.3445    0.0000 O   0  0  0  0  0  0  0  0  0  0  0  0
    3.4668   -3.1555    0.0000 O   0  0  0  0  0  0  0  0  0  0  0  0
    5.4155    2.5470    0.0000 N   0  0  0  0  0  0  0  0  0  0  0  0
    2.7431    2.6992    0.0000 N   0  0  0  0  0  0  0  0  0  0  0  0
    8.3991    2.8606    0.0000 N   0  0  0  0  0  0  0  0  0  0  0  0
    4.4374    2.3391    0.0000 C   0  0  1  0  0  0  0  0  0  0  0  0
    4.3328    1.3445    0.0000 C   0  0  0  0  0  0  0  0  0  0  0  0
    5.8222    3.4605    0.0000 C   0  0  0  0  0  0  0  0  0  0  0  0
    5.9155    1.6809    0.0000 C   0  0  0  0  0  0  0  0  0  0  0  0
    3.6942    3.0082    0.0000 C   0  0  0  0  0  0  0  0  0  0  0  0
    5.2464    0.9378    0.0000 C   0  0  0  0  0  0  0  0  0  0  0  0
    3.4668    0.8445    0.0000 C   0  0  0  0  0  0  0  0  0  0  0  0
    6.8168    3.5650    0.0000 C   0  0  0  0  0  0  0  0  0  0  0  0
    3.9021    3.9863    0.0000 C   0  0  0  0  0  0  0  0  0  0  0  0
    3.4668   -0.1555    0.0000 C   0  0  0  0  0  0  0  0  0  0  0  0
    7.2235    4.4786    0.0000 C   0  0  0  0  0  0  0  0  0  0  0  0
    7.4045    2.7560    0.0000 C   0  0  0  0  0  0  0  0  0  0  0  0
    3.1590    4.6555    0.0000 C   0  0  0  0  0  0  0  0  0  0  0  0
    2.6008   -0.6555    0.0000 C   0  0  0  0  0  0  0  0  0  0  0  0
    4.3328   -0.6555    0.0000 C   0  0  0  0  0  0  0  0  0  0  0  0
    2.0000    3.3683    0.0000 C   0  0  0  0  0  0  0  0  0  0  0  0
    2.2079    4.3464    0.0000 C   0  0  0  0  0  0  0  0  0  0  0  0
    2.6008   -1.6555    0.0000 C   0  0  0  0  0  0  0  0  0  0  0  0
    4.3328   -1.6555    0.0000 C   0  0  0  0  0  0  0  0  0  0  0  0
    8.2180    4.5831    0.0000 C   0  0  0  0  0  0  0  0  0  0  0  0
    3.4668   -2.1555    0.0000 C   0  0  0  0  0  0  0  0  0  0  0  0
    8.8058    3.7741    0.0000 C   0  0  0  0  0  0  0  0  0  0  0  0
    2.6008   -3.6555    0.0000 C   0  0  0  0  0  0  0  0  0  0  0  0
    2.6008   -4.6555    0.0000 C   0  0  0  0  0  0  0  0  0  0  0  0
    3.6438    2.0344    0.0000 H   0  0  0  0  0  0  0  0  0  0  0  0
    5.8655    4.0790    0.0000 H   0  0  0  0  0  0  0  0  0  0  0  0
    5.2206    3.6105    0.0000 H   0  0  0  0  0  0  0  0  0  0  0  0
    4.4918    4.1779    0.0000 H   0  0  0  0  0  0  0  0  0  0  0  0
    6.8591    4.9802    0.0000 H   0  0  0  0  0  0  0  0  0  0  0  0
    7.1524    2.1896    0.0000 H   0  0  0  0  0  0  0  0  0  0  0  0
    3.2879    5.2619    0.0000 H   0  0  0  0  0  0  0  0  0  0  0  0
    2.0638   -0.3455    0.0000 H   0  0  0  0  0  0  0  0  0  0  0  0
    4.8698   -0.3455    0.0000 H   0  0  0  0  0  0  0  0  0  0  0  0
    1.4103    3.1767    0.0000 H   0  0  0  0  0  0  0  0  0  0  0  0
    2.0638    1.0345    0.0000 H   0  0  0  0  0  0  0  0  0  0  0  0
    1.7472    4.7613    0.0000 H   0  0  0  0  0  0  0  0  0  0  0  0
    2.0638   -1.9655    0.0000 H   0  0  0  0  0  0  0  0  0  0  0  0
    4.8698   -1.9655    0.0000 H   0  0  0  0  0  0  0  0  0  0  0  0
    8.4702    5.1495    0.0000 H   0  0  0  0  0  0  0  0  0  0  0  0
    9.4224    3.8389    0.0000 H   0  0  0  0  0  0  0  0  0  0  0  0
    2.3887   -3.0729    0.0000 H   0  0  0  0  0  0  0  0  0  0  0  0
    1.9902   -3.7631    0.0000 H   0  0  0  0  0  0  0  0  0  0  0  0
    1.9808   -4.6555    0.0000 H   0  0  0  0  0  0  0  0  0  0  0  0
    2.6008   -5.2755    0.0000 H   0  0  0  0  0  0  0  0  0  0  0  0
    3.2208   -4.6555    0.0000 H   0  0  0  0  0  0  0  0  0  0  0  0
  1 11  2  0  0  0  0 
  2 13  2  0  0  0  0 
  3 14  1  0  0  0  0 
  3 42  1  0  0  0  0 
  4 28  1  0  0  0  0 
  4 30  1  0  0  0  0 
  5  8  1  0  0  0  0 
  5 10  1  0  0  0  0 
  5 11  1  0  0  0  0 
  6 12  1  0  0  0  0 
  6 23  2  0  0  0  0 
  7 19  1  0  0  0  0 
  7 29  2  0  0  0  0 
  8  9  1  0  0  0  0 
  8 12  1  0  0  0  0 
  8 32  1  6  0  0  0 
  9 13  1  0  0  0  0 
  9 14  2  3  0  0  0 
 10 15  1  0  0  0  0 
 10 33  1  0  0  0  0 
 10 34  1  0  0  0  0 
 11 13  1  0  0  0  0 
 12 16  2  0  0  0  0 
 14 17  1  0  0  0  0 
 15 18  1  0  0  0  0 
 15 19  2  0  0  0  0 
 16 20  1  0  0  0  0 
 16 35  1  0  0  0  0 
 17 21  2  0  0  0  0 
 17 22  1  0  0  0  0 
 18 27  2  0  0  0  0 
 18 36  1  0  0  0  0 
 19 37  1  0  0  0  0 
 20 24  2  0  0  0  0 
 20 38  1  0  0  0  0 
 21 25  1  0  0  0  0 
 21 39  1  0  0  0  0 
 22 26  2  0  0  0  0 
 22 40  1  0  0  0  0 
 23 24  1  0  0  0  0 
 23 41  1  0  0  0  0 
 24 43  1  0  0  0  0 
 25 28  2  0  0  0  0 
 25 44  1  0  0  0  0 
 26 28  1  0  0  0  0 
 26 45  1  0  0  0  0 
 27 29  1  0  0  0  0 
 27 46  1  0  0  0  0 
 29 47  1  0  0  0  0 
 30 31  1  0  0  0  0 
 30 48  1  0  0  0  0 
 30 49  1  0  0  0  0 
 31 50  1  0  0  0  0 
 31 51  1  0  0  0  0 
 31 52  1  0  0  0  0 
M  END
> <cdk:Title>
1525165

> <cdk:Remark>
null

> <PUBCHEM_COMPOUND_CID>
1525165

> <PUBCHEM_COMPOUND_CANONICALIZED>
1

> <PUBCHEM_CACTVS_COMPLEXITY>
686

> <PUBCHEM_CACTVS_HBOND_ACCEPTOR>
6

> <PUBCHEM_CACTVS_HBOND_DONOR>
1

> <PUBCHEM_CACTVS_ROTATABLE_BOND>
6

> <PUBCHEM_CACTVS_SUBSKEYS>
AAADceB7OAAAAAAAAAAAAAAAAAAAAWAAAAA8WIAAAAAAAAAB8AAAHgAACAAADCzhngY+hpMIFgCoA7V3VACCiCAxIiAI2CG+bNgMZvrE8buWeCjkxhHI+Qec6ayeIAAAAAAAAABAAAAAAAAAAAAAAAAAAA==

> <PUBCHEM_IUPAC_OPENEYE_NAME>
(5S)-4-[(4-ethoxyphenyl)-hydroxy-methylene]-5-(2-pyridyl)-1-(3-pyridylmethyl)pyrrolidine-2,3-dione

> <PUBCHEM_IUPAC_CAS_NAME>
(5S)-4-[(4-ethoxyphenyl)-hydroxymethylidene]-5-(2-pyridinyl)-1-(3-pyridinylmethyl)pyrrolidine-2,3-dione

> <PUBCHEM_IUPAC_NAME>
(5S)-4-[(4-ethoxyphenyl)-hydroxymethylidene]-5-pyridin-2-yl-1-(pyridin-3-ylmethyl)pyrrolidine-2,3-dione

> <PUBCHEM_IUPAC_SYSTEMATIC_NAME>
(5S)-4-[(4-ethoxyphenyl)-oxidanyl-methylidene]-5-pyridin-2-yl-1-(pyridin-3-ylmethyl)pyrrolidine-2,3-dione

> <PUBCHEM_IUPAC_TRADITIONAL_NAME>
(5S)-4-[hydroxy(p-phenetyl)methylene]-5-(2-pyridyl)-1-(3-pyridylmethyl)pyrrolidine-2,3-quinone

> <PUBCHEM_IUPAC_INCHI>
InChI=1S/C24H21N3O4/c1-2-31-18-10-8-17(9-11-18)22(28)20-21(19-7-3-4-13-26-19)27(24(30)23(20)29)15-16-6-5-12-25-14-16/h3-14,21,28H,2,15H2,1H3/t21-/m1/s1

> <PUBCHEM_IUPAC_INCHIKEY>
MILGFKUNPRVSLT-OAQYLSRUSA-N

> <PUBCHEM_XLOGP3_AA>
2.7

> <PUBCHEM_EXACT_MASS>
415.153206

> <PUBCHEM_MOLECULAR_FORMULA>
C24H21N3O4

> <PUBCHEM_MOLECULAR_WEIGHT>
415.44124

> <PUBCHEM_OPENEYE_CAN_SMILES>
CCOC1=CC=C(C=C1)C(=C2C(N(C(=O)C2=O)CC3=CN=CC=C3)C4=CC=CC=N4)O

> <PUBCHEM_OPENEYE_ISO_SMILES>
CCOC1=CC=C(C=C1)C(=C2[C@H](N(C(=O)C2=O)CC3=CN=CC=C3)C4=CC=CC=N4)O

> <PUBCHEM_CACTVS_TPSA>
92.6

> <PUBCHEM_MONOISOTOPIC_WEIGHT>
415.153206

> <PUBCHEM_TOTAL_CHARGE>
0

> <PUBCHEM_HEAVY_ATOM_COUNT>
31

> <PUBCHEM_ATOM_DEF_STEREO_COUNT>
1

> <PUBCHEM_ATOM_UDEF_STEREO_COUNT>
0

> <PUBCHEM_BOND_DEF_STEREO_COUNT>
0

> <PUBCHEM_BOND_UDEF_STEREO_COUNT>
1

> <PUBCHEM_ISOTOPIC_ATOM_COUNT>
0

> <PUBCHEM_COMPONENT_COUNT>
1

> <PUBCHEM_CACTVS_TAUTO_COUNT>
3

> <PUBCHEM_COORDINATE_TYPE>
1

> <PUBCHEM_BONDANNOTATIONS>
12  16  8

$$$$
1525165
  CDK     0224152114

 52 55  0  0  0  0  0  0  0  0999 V2000
    6.9100    1.5764    0.0000 O   0  0  0  0  0  0  0  0  0  0  0  0
    5.4543   -0.0403    0.0000 O   0  0  0  0  0  0  0  0  0  0  0  0
    2.6008    1.3445    0.0000 O   0  0  0  0  0  0  0  0  0  0  0  0
    3.4668   -3.1555    0.0000 O   0  0  0  0  0  0  0  0  0  0  0  0
    5.4155    2.5470    0.0000 N   0  0  0  0  0  0  0  0  0  0  0  0
    2.7431    2.6992    0.0000 N   0  0  0  0  0  0  0  0  0  0  0  0
    8.3991    2.8606    0.0000 N   0  0  0  0  0  0  0  0  0  0  0  0
    4.4374    2.3391    0.0000 C   0  0  1  0  0  0  0  0  0  0  0  0
    4.3328    1.3445    0.0000 C   0  0  0  0  0  0  0  0  0  0  0  0
    5.8222    3.4605    0.0000 C   0  0  0  0  0  0  0  0  0  0  0  0
    5.9155    1.6809    0.0000 C   0  0  0  0  0  0  0  0  0  0  0  0
    3.6942    3.0082    0.0000 C   0  0  0  0  0  0  0  0  0  0  0  0
    5.2464    0.9378    0.0000 C   0  0  0  0  0  0  0  0  0  0  0  0
    3.4668    0.8445    0.0000 C   0  0  0  0  0  0  0  0  0  0  0  0
    6.8168    3.5650    0.0000 C   0  0  0  0  0  0  0  0  0  0  0  0
    3.9021    3.9863    0.0000 C   0  0  0  0  0  0  0  0  0  0  0  0
    3.4668   -0.1555    0.0000 C   0  0  0  0  0  0  0  0  0  0  0  0
    7.2235    4.4786    0.0000 C   0  0  0  0  0  0  0  0  0  0  0  0
    7.4045    2.7560    0.0000 C   0  0  0  0  0  0  0  0  0  0  0  0
    3.1590    4.6555    0.0000 C   0  0  0  0  0  0  0  0  0  0  0  0
    2.6008   -0.6555    0.0000 C   0  0  0  0  0  0  0  0  0  0  0  0
    4.3328   -0.6555    0.0000 C   0  0  0  0  0  0  0  0  0  0  0  0
    2.0000    3.3683    0.0000 C   0  0  0  0  0  0  0  0  0  0  0  0
    2.2079    4.3464    0.0000 C   0  0  0  0  0  0  0  0  0  0  0  0
    2.6008   -1.6555    0.0000 C   0  0  0  0  0  0  0  0  0  0  0  0
    4.3328   -1.6555    0.0000 C   0  0  0  0  0  0  0  0  0  0  0  0
    8.2180    4.5831    0.0000 C   0  0  0  0  0  0  0  0  0  0  0  0
    3.4668   -2.1555    0.0000 C   0  0  0  0  0  0  0  0  0  0  0  0
    8.8058    3.7741    0.0000 C   0  0  0  0  0  0  0  0  0  0  0  0
    2.6008   -3.6555    0.0000 C   0  0  0  0  0  0  0  0  0  0  0  0
    2.6008   -4.6555    0.0000 C   0  0  0  0  0  0  0  0  0  0  0  0
    3.6438    2.0344    0.0000 H   0  0  0  0  0  0  0  0  0  0  0  0
    5.8655    4.0790    0.0000 H   0  0  0  0  0  0  0  0  0  0  0  0
    5.2206    3.6105    0.0000 H   0  0  0  0  0  0  0  0  0  0  0  0
    4.4918    4.1779    0.0000 H   0  0  0  0  0  0  0  0  0  0  0  0
    6.8591    4.9802    0.0000 H   0  0  0  0  0  0  0  0  0  0  0  0
    7.1524    2.1896    0.0000 H   0  0  0  0  0  0  0  0  0  0  0  0
    3.2879    5.2619    0.0000 H   0  0  0  0  0  0  0  0  0  0  0  0
    2.0638   -0.3455    0.0000 H   0  0  0  0  0  0  0  0  0  0  0  0
    4.8698   -0.3455    0.0000 H   0  0  0  0  0  0  0  0  0  0  0  0
    1.4103    3.1767    0.0000 H   0  0  0  0  0  0  0  0  0  0  0  0
    2.0638    1.0345    0.0000 H   0  0  0  0  0  0  0  0  0  0  0  0
    1.7472    4.7613    0.0000 H   0  0  0  0  0  0  0  0  0  0  0  0
    2.0638   -1.9655    0.0000 H   0  0  0  0  0  0  0  0  0  0  0  0
    4.8698   -1.9655    0.0000 H   0  0  0  0  0  0  0  0  0  0  0  0
    8.4702    5.1495    0.0000 H   0  0  0  0  0  0  0  0  0  0  0  0
    9.4224    3.8389    0.0000 H   0  0  0  0  0  0  0  0  0  0  0  0
    2.3887   -3.0729    0.0000 H   0  0  0  0  0  0  0  0  0  0  0  0
    1.9902   -3.7631    0.0000 H   0  0  0  0  0  0  0  0  0  0  0  0
    1.9808   -4.6555    0.0000 H   0  0  0  0  0  0  0  0  0  0  0  0
    2.6008   -5.2755    0.0000 H   0  0  0  0  0  0  0  0  0  0  0  0
    3.2208   -4.6555    0.0000 H   0  0  0  0  0  0  0  0  0  0  0  0
  1 11  2  0  0  0  0 
  2 13  2  0  0  0  0 
  3 14  1  0  0  0  0 
  3 42  1  0  0  0  0 
  4 28  1  0  0  0  0 
  4 30  1  0  0  0  0 
  5  8  1  0  0  0  0 
  5 10  1  0  0  0  0 
  5 11  1  0  0  0  0 
  6 12  1  0  0  0  0 
  6 23  2  0  0  0  0 
  7 19  1  0  0  0  0 
  7 29  2  0  0  0  0 
  8  9  1  0  0  0  0 
  8 12  1  0  0  0  0 
  8 32  1  6  0  0  0 
  9 13  1  0  0  0  0 
  9 14  2  3  0  0  0 
 10 15  1  0  0  0  0 
 10 33  1  0  0  0  0 
 10 34  1  0  0  0  0 
 11 13  1  0  0  0  0 
 12 16  2  0  0  0  0 
 14 17  1  0  0  0  0 
 15 18  1  0  0  0  0 
 15 19  2  0  0  0  0 
 16 20  1  0  0  0  0 
 16 35  1  0  0  0  0 
 17 21  2  0  0  0  0 
 17 22  1  0  0  0  0 
 18 27  2  0  0  0  0 
 18 36  1  0  0  0  0 
 19 37  1  0  0  0  0 
 20 24  2  0  0  0  0 
 20 38  1  0  0  0  0 
 21 25  1  0  0  0  0 
 21 39  1  0  0  0  0 
 22 26  2  0  0  0  0 
 22 40  1  0  0  0  0 
 23 24  1  0  0  0  0 
 23 41  1  0  0  0  0 
 24 43  1  0  0  0  0 
 25 28  2  0  0  0  0 
 25 44  1  0  0  0  0 
 26 28  1  0  0  0  0 
 26 45  1  0  0  0  0 
 27 29  1  0  0  0  0 
 27 46  1  0  0  0  0 
 29 47  1  0  0  0  0 
 30 31  1  0  0  0  0 
 30 48  1  0  0  0  0 
 30 49  1  0  0  0  0 
 31 50  1  0  0  0  0 
 31 51  1  0  0  0  0 
 31 52  1  0  0  0  0 
M  END
> <cdk:Title>
1525165

> <cdk:Remark>
null

> <PUBCHEM_COMPOUND_CID>
1525165

> <PUBCHEM_COMPOUND_CANONICALIZED>
1

> <PUBCHEM_CACTVS_COMPLEXITY>
686

> <PUBCHEM_CACTVS_HBOND_ACCEPTOR>
6

> <PUBCHEM_CACTVS_HBOND_DONOR>
1

> <PUBCHEM_CACTVS_ROTATABLE_BOND>
6

> <PUBCHEM_CACTVS_SUBSKEYS>
AAADceB7OAAAAAAAAAAAAAAAAAAAAWAAAAA8WIAAAAAAAAAB8AAAHgAACAAADCzhngY+hpMIFgCoA7V3VACCiCAxIiAI2CG+bNgMZvrE8buWeCjkxhHI+Qec6ayeIAAAAAAAAABAAAAAAAAAAAAAAAAAAA==

> <PUBCHEM_IUPAC_OPENEYE_NAME>
(5S)-4-[(4-ethoxyphenyl)-hydroxy-methylene]-5-(2-pyridyl)-1-(3-pyridylmethyl)pyrrolidine-2,3-dione

> <PUBCHEM_IUPAC_CAS_NAME>
(5S)-4-[(4-ethoxyphenyl)-hydroxymethylidene]-5-(2-pyridinyl)-1-(3-pyridinylmethyl)pyrrolidine-2,3-dione

> <PUBCHEM_IUPAC_NAME>
(5S)-4-[(4-ethoxyphenyl)-hydroxymethylidene]-5-pyridin-2-yl-1-(pyridin-3-ylmethyl)pyrrolidine-2,3-dione

> <PUBCHEM_IUPAC_SYSTEMATIC_NAME>
(5S)-4-[(4-ethoxyphenyl)-oxidanyl-methylidene]-5-pyridin-2-yl-1-(pyridin-3-ylmethyl)pyrrolidine-2,3-dione

> <PUBCHEM_IUPAC_TRADITIONAL_NAME>
(5S)-4-[hydroxy(p-phenetyl)methylene]-5-(2-pyridyl)-1-(3-pyridylmethyl)pyrrolidine-2,3-quinone

> <PUBCHEM_IUPAC_INCHI>
InChI=1S/C24H21N3O4/c1-2-31-18-10-8-17(9-11-18)22(28)20-21(19-7-3-4-13-26-19)27(24(30)23(20)29)15-16-6-5-12-25-14-16/h3-14,21,28H,2,15H2,1H3/t21-/m1/s1

> <PUBCHEM_IUPAC_INCHIKEY>
MILGFKUNPRVSLT-OAQYLSRUSA-N

> <PUBCHEM_XLOGP3_AA>
2.7

> <PUBCHEM_EXACT_MASS>
415.153206

> <PUBCHEM_MOLECULAR_FORMULA>
C24H21N3O4

> <PUBCHEM_MOLECULAR_WEIGHT>
415.44124

> <PUBCHEM_OPENEYE_CAN_SMILES>
CCOC1=CC=C(C=C1)C(=C2C(N(C(=O)C2=O)CC3=CN=CC=C3)C4=CC=CC=N4)O

> <PUBCHEM_OPENEYE_ISO_SMILES>
CCOC1=CC=C(C=C1)C(=C2[C@H](N(C(=O)C2=O)CC3=CN=CC=C3)C4=CC=CC=N4)O

> <PUBCHEM_CACTVS_TPSA>
92.6

> <PUBCHEM_MONOISOTOPIC_WEIGHT>
415.153206

> <PUBCHEM_TOTAL_CHARGE>
0

> <PUBCHEM_HEAVY_ATOM_COUNT>
31

> <PUBCHEM_ATOM_DEF_STEREO_COUNT>
1

> <PUBCHEM_ATOM_UDEF_STEREO_COUNT>
0

> <PUBCHEM_BOND_DEF_STEREO_COUNT>
0

> <PUBCHEM_BOND_UDEF_STEREO_COUNT>
1

> <PUBCHEM_ISOTOPIC_ATOM_COUNT>
0

> <PUBCHEM_COMPONENT_COUNT>
1

> <PUBCHEM_CACTVS_TAUTO_COUNT>
3

> <PUBCHEM_COORDINATE_TYPE>
1

> <PUBCHEM_BONDANNOTATIONS>
12  16  8

$$$$
