
  CDK     0202151413

 17 17  0  0  0  0  0  0  0  0999 V2000
    6.3301   -3.3318    0.0000 S   0  0  0  0  0  0  0  0  0  0  0  0
    2.8660   -1.3318    0.0000 O   0  0  0  0  0  0  0  0  0  0  0  0
    6.3301    1.6682    0.0000 O   0  0  0  0  0  0  0  0  0  0  0  0
    6.3301   -0.3318    0.0000 O   0  0  0  0  0  0  0  0  0  0  0  0
    5.4641    3.1682    0.0000 O   0  0  0  0  0  0  0  0  0  0  0  0
    7.1962   -3.8318    0.0000 N   0  0  0  0  0  0  0  0  0  0  0  0
    4.5981   -0.3318    0.0000 N   0  0  0  0  0  0  0  0  0  0  0  0
    5.4641   -2.8318    0.0000 C   0  0  0  0  0  0  0  0  0  0  0  0
    5.4641   -1.8318    0.0000 C   0  0  0  0  0  0  0  0  0  0  0  0
    4.5981   -1.3318    0.0000 C   0  0  0  0  0  0  0  0  0  0  0  0
    4.5981   -3.3318    0.0000 C   0  0  0  0  0  0  0  0  0  0  0  0
    3.7320   -1.8318    0.0000 C   0  0  0  0  0  0  0  0  0  0  0  0
    3.7320   -2.8318    0.0000 C   0  0  0  0  0  0  0  0  0  0  0  0
    5.4641    0.1682    0.0000 C   0  0  0  0  0  0  0  0  0  0  0  0
    5.4641    1.1682    0.0000 C   0  0  0  0  0  0  0  0  0  0  0  0
    7.1962    3.1682    0.0000 C   0  0  0  0  0  0  0  0  0  0  0  0
    6.3301    2.6682    0.0000 C   0  0  0  0  0  0  0  0  0  0  0  0
  1  6  1  0  0  0  0 
  1  8  1  0  0  0  0 
  2 12  1  0  0  0  0 
  3 15  1  0  0  0  0 
  3 17  1  0  0  0  0 
  4 14  1  0  0  0  0 
  5 17  1  0  0  0  0 
  7 10  1  0  0  0  0 
  7 14  1  0  0  0  0 
  8  9  1  0  0  0  0 
  8 11  1  0  0  0  0 
  9 10  1  0  0  0  0 
 10 12  1  0  0  0  0 
 11 13  1  0  0  0  0 
 12 13  1  0  0  0  0 
 14 15  1  0  0  0  0 
 16 17  1  0  0  0  0 
M  END
> <PUBCHEM_COMPOUND_CID>
3989000

$$$$
