
  CDK     0202151413

 16 16  0  0  0  0  0  0  0  0999 V2000
    7.1279    1.8365    0.0000 S   0  0  0  0  0  0  0  0  0  0  0  0
    9.1279    1.8365    0.0000 O   0  0  0  0  0  0  0  0  0  0  0  0
    9.1279    0.1045    0.0000 N   0  0  0  0  0  0  0  0  0  0  0  0
    5.5443    2.6413    0.0000 N   0  0  0  0  0  0  0  0  0  0  0  0
    5.5443    1.0318    0.0000 N   0  0  0  0  0  0  0  0  0  0  0  0
    7.6279    0.9705    0.0000 C   0  0  2  0  0  0  0  0  0  0  0  0
   10.6279   -0.7615    0.0000 C   0  0  0  0  0  0  0  0  0  0  0  0
   10.1279    0.1045    0.0000 C   0  0  0  0  0  0  0  0  0  0  0  0
    4.5981    2.3365    0.0000 C   0  0  0  0  0  0  0  0  0  0  0  0
    4.5981    1.3365    0.0000 C   0  0  0  0  0  0  0  0  0  0  0  0
   12.1279   -1.6276    0.0000 C   0  0  0  0  0  0  0  0  0  0  0  0
   11.6279   -0.7615    0.0000 C   0  0  0  0  0  0  0  0  0  0  0  0
    8.6279    0.9705    0.0000 C   0  0  0  0  0  0  0  0  0  0  0  0
    6.1279    1.8365    0.0000 C   0  0  0  0  0  0  0  0  0  0  0  0
   10.1279   -1.6276    0.0000 C   0  0  0  0  0  0  0  0  0  0  0  0
    7.1279    0.1045    0.0000 C   0  0  0  0  0  0  0  0  0  0  0  0
  1  6  1  0  0  0  0 
  1 14  1  0  0  0  0 
  2 13  1  0  0  0  0 
  3  8  1  0  0  0  0 
  3 13  1  0  0  0  0 
  4  9  1  0  0  0  0 
  4 14  1  0  0  0  0 
  5 10  1  0  0  0  0 
  5 14  1  0  0  0  0 
  6 13  1  0  0  0  0 
  6 16  1  6  0  0  0 
  7  8  1  0  0  0  0 
  7 12  1  0  0  0  0 
  7 15  1  0  0  0  0 
  9 10  1  0  0  0  0 
 11 12  1  0  0  0  0 
M  END
> <PUBCHEM_COMPOUND_CID>
7247461

$$$$
