21960503
  CDK     0224151638

 50 51  0  0  0  0  0  0  0  0999 V2000
    4.4495   -0.7325    0.0000 Si  0  0  0  0  0  0  0  0  0  0  0  0
    4.1907   -1.6984    0.0000 O   0  0  0  0  0  0  0  0  0  0  0  0
    3.4836   -0.4737    0.0000 O   0  0  0  0  0  0  0  0  0  0  0  0
    5.4154   -0.9913    0.0000 O   0  0  0  0  0  0  0  0  0  0  0  0
    4.7083    0.2334    0.0000 C   0  0  3  0  0  0  0  0  0  0  0  0
    6.4404    1.2334    0.0000 C   0  0  3  0  0  0  0  0  0  0  0  0
    6.6992    2.1994    0.0000 C   0  0  3  0  0  0  0  0  0  0  0  0
    4.2083    1.0995    0.0000 C   0  0  0  0  0  0  0  0  0  0  0  0
    5.9626    3.1820    0.0000 C   0  0  0  0  0  0  0  0  0  0  0  0
    8.2723    0.4746    0.0000 C   0  0  0  0  0  0  0  0  0  0  0  0
    8.5311    1.4405    0.0000 C   0  0  0  0  0  0  0  0  0  0  0  0
    5.6742   -1.9572    0.0000 C   0  0  0  0  0  0  0  0  0  0  0  0
    3.2247    0.4923    0.0000 C   0  0  0  0  0  0  0  0  0  0  0  0
    3.2247   -1.9572    0.0000 C   0  0  0  0  0  0  0  0  0  0  0  0
    6.6402   -2.2160    0.0000 C   0  0  0  0  0  0  0  0  0  0  0  0
    2.2588    0.7511    0.0000 C   0  0  0  0  0  0  0  0  0  0  0  0
    2.9659   -2.9232    0.0000 C   0  0  0  0  0  0  0  0  0  0  0  0
    2.0000   -3.1820    0.0000 C   0  0  0  0  0  0  0  0  0  0  0  0
    2.0000    1.7170    0.0000 C   0  0  0  0  0  0  0  0  0  0  0  0
    6.8990   -3.1820    0.0000 C   0  0  0  0  0  0  0  0  0  0  0  0
    4.0936    0.1525    0.0000 H   0  0  0  0  0  0  0  0  0  0  0  0
    6.4809    0.6148    0.0000 H   0  0  0  0  0  0  0  0  0  0  0  0
    6.7064    1.5794    0.0000 H   0  0  0  0  0  0  0  0  0  0  0  0
    3.9376    1.6573    0.0000 H   0  0  0  0  0  0  0  0  0  0  0  0
    3.6606    0.8089    0.0000 H   0  0  0  0  0  0  0  0  0  0  0  0
    6.2804    3.7143    0.0000 H   0  0  0  0  0  0  0  0  0  0  0  0
    5.3494    3.2739    0.0000 H   0  0  0  0  0  0  0  0  0  0  0  0
    8.5465   -0.0814    0.0000 H   0  0  0  0  0  0  0  0  0  0  0  0
    9.0872    1.7148    0.0000 H   0  0  0  0  0  0  0  0  0  0  0  0
    3.8424    0.5463    0.0000 H   0  0  0  0  0  0  0  0  0  0  0  0
    3.1707   -1.3396    0.0000 H   0  0  0  0  0  0  0  0  0  0  0  0
    2.6071   -1.9032    0.0000 H   0  0  0  0  0  0  0  0  0  0  0  0
    3.2788    1.1099    0.0000 H   0  0  0  0  0  0  0  0  0  0  0  0
    5.0566   -2.0113    0.0000 H   0  0  0  0  0  0  0  0  0  0  0  0
    5.6202   -2.5749    0.0000 H   0  0  0  0  0  0  0  0  0  0  0  0
    3.0200   -3.5408    0.0000 H   0  0  0  0  0  0  0  0  0  0  0  0
    3.5836   -2.9772    0.0000 H   0  0  0  0  0  0  0  0  0  0  0  0
    1.6412    0.6970    0.0000 H   0  0  0  0  0  0  0  0  0  0  0  0
    2.2048    0.1334    0.0000 H   0  0  0  0  0  0  0  0  0  0  0  0
    7.2578   -2.1620    0.0000 H   0  0  0  0  0  0  0  0  0  0  0  0
    6.6942   -1.5984    0.0000 H   0  0  0  0  0  0  0  0  0  0  0  0
    1.8395   -2.5831    0.0000 H   0  0  0  0  0  0  0  0  0  0  0  0
    1.4011   -3.3424    0.0000 H   0  0  0  0  0  0  0  0  0  0  0  0
    2.1605   -3.7808    0.0000 H   0  0  0  0  0  0  0  0  0  0  0  0
    2.5989    1.8775    0.0000 H   0  0  0  0  0  0  0  0  0  0  0  0
    1.8395    2.3159    0.0000 H   0  0  0  0  0  0  0  0  0  0  0  0
    1.4011    1.5565    0.0000 H   0  0  0  0  0  0  0  0  0  0  0  0
    6.3001   -3.3424    0.0000 H   0  0  0  0  0  0  0  0  0  0  0  0
    7.0594   -3.7808    0.0000 H   0  0  0  0  0  0  0  0  0  0  0  0
    7.4978   -3.0215    0.0000 H   0  0  0  0  0  0  0  0  0  0  0  0
  1  2  1  0  0  0  0 
  1  3  1  0  0  0  0 
  1  4  1  0  0  0  0 
  1  5  1  0  0  0  0 
  2 14  1  0  0  0  0 
  3 13  1  0  0  0  0 
  4 12  1  0  0  0  0 
  5  6  1  0  0  0  0 
  5  8  1  0  0  0  0 
  5 21  1  0  0  0  0 
  6  9  1  0  0  0  0 
  6 10  1  0  0  0  0 
  6 22  1  0  0  0  0 
  7  8  1  0  0  0  0 
  7  9  1  0  0  0  0 
  7 11  1  0  0  0  0 
  7 23  1  0  0  0  0 
  8 24  1  0  0  0  0 
  8 25  1  0  0  0  0 
  9 26  1  0  0  0  0 
  9 27  1  0  0  0  0 
 10 11  2  0  0  0  0 
 10 28  1  0  0  0  0 
 11 29  1  0  0  0  0 
 12 15  1  0  0  0  0 
 12 34  1  0  0  0  0 
 12 35  1  0  0  0  0 
 13 16  1  0  0  0  0 
 13 30  1  0  0  0  0 
 13 33  1  0  0  0  0 
 14 17  1  0  0  0  0 
 14 31  1  0  0  0  0 
 14 32  1  0  0  0  0 
 15 20  1  0  0  0  0 
 15 40  1  0  0  0  0 
 15 41  1  0  0  0  0 
 16 19  1  0  0  0  0 
 16 38  1  0  0  0  0 
 16 39  1  0  0  0  0 
 17 18  1  0  0  0  0 
 17 36  1  0  0  0  0 
 17 37  1  0  0  0  0 
 18 42  1  0  0  0  0 
 18 43  1  0  0  0  0 
 18 44  1  0  0  0  0 
 19 45  1  0  0  0  0 
 19 46  1  0  0  0  0 
 19 47  1  0  0  0  0 
 20 48  1  0  0  0  0 
 20 49  1  0  0  0  0 
 20 50  1  0  0  0  0 
M  END
> <cdk:Title>
21960503

> <cdk:Remark>
null

> <PUBCHEM_COMPOUND_CID>
21960503

> <PUBCHEM_COMPOUND_CANONICALIZED>
1

> <PUBCHEM_CACTVS_COMPLEXITY>
297

> <PUBCHEM_CACTVS_HBOND_ACCEPTOR>
3

> <PUBCHEM_CACTVS_HBOND_DONOR>
0

> <PUBCHEM_CACTVS_ROTATABLE_BOND>
10

> <PUBCHEM_CACTVS_SUBSKEYS>
AAADceB4MAgAAAAAAAAAAAAAAAAAAYIAAAAgAAAAAAAAAAAAAAAAGhAAAEAADQCgoAJCAAAAAACAACBCAAAAAAAgAAAICAAAAAgAAAIAAQAAAAAAgAAIAAMAAAAOAAAAAAAAAAAAAAAAAAAAAQAAAAAAAA==

> <PUBCHEM_IUPAC_OPENEYE_NAME>
5-bicyclo[2.2.1]hept-2-enyl(tripropoxy)silane

> <PUBCHEM_IUPAC_CAS_NAME>
5-bicyclo[2.2.1]hept-2-enyl(tripropoxy)silane

> <PUBCHEM_IUPAC_NAME>
5-bicyclo[2.2.1]hept-2-enyl(tripropoxy)silane

> <PUBCHEM_IUPAC_SYSTEMATIC_NAME>
5-bicyclo[2.2.1]hept-2-enyl(tripropoxy)silane

> <PUBCHEM_IUPAC_TRADITIONAL_NAME>
5-bicyclo[2.2.1]hept-2-enyl(tripropoxy)silane

> <PUBCHEM_IUPAC_INCHI>
InChI=1S/C16H30O3Si/c1-4-9-17-20(18-10-5-2,19-11-6-3)16-13-14-7-8-15(16)12-14/h7-8,14-16H,4-6,9-13H2,1-3H3

> <PUBCHEM_IUPAC_INCHIKEY>
IUASQOQVXRQXRL-UHFFFAOYSA-N

> <PUBCHEM_EXACT_MASS>
298.196421

> <PUBCHEM_MOLECULAR_FORMULA>
C16H30O3Si

> <PUBCHEM_MOLECULAR_WEIGHT>
298.4931

> <PUBCHEM_OPENEYE_CAN_SMILES>
CCCO[Si](C1CC2CC1C=C2)(OCCC)OCCC

> <PUBCHEM_OPENEYE_ISO_SMILES>
CCCO[Si](C1CC2CC1C=C2)(OCCC)OCCC

> <PUBCHEM_CACTVS_TPSA>
27.7

> <PUBCHEM_MONOISOTOPIC_WEIGHT>
298.196421

> <PUBCHEM_TOTAL_CHARGE>
0

> <PUBCHEM_HEAVY_ATOM_COUNT>
20

> <PUBCHEM_ATOM_DEF_STEREO_COUNT>
0

> <PUBCHEM_ATOM_UDEF_STEREO_COUNT>
3

> <PUBCHEM_BOND_DEF_STEREO_COUNT>
0

> <PUBCHEM_BOND_UDEF_STEREO_COUNT>
0

> <PUBCHEM_ISOTOPIC_ATOM_COUNT>
0

> <PUBCHEM_COMPONENT_COUNT>
1

> <PUBCHEM_CACTVS_TAUTO_COUNT>
1

> <PUBCHEM_COORDINATE_TYPE>
1

> <PUBCHEM_BONDANNOTATIONS>
5  1  3

$$$$
