13632598
  CDK     1205141050

 38 39  0  0  0  0  0  0  0  0999 V2000
    4.2320   -3.7024    0.0000 F   0  0  0  0  0  0  0  0  0  0  0  0
    3.2320   -1.9704    0.0000 F   0  0  0  0  0  0  0  0  0  0  0  0
    2.0000   -3.8364    0.0000 F   0  0  0  0  0  0  0  0  0  0  0  0
    3.3660   -4.2024    0.0000 F   0  0  0  0  0  0  0  0  0  0  0  0
    2.3660   -2.4704    0.0000 F   0  0  0  0  0  0  0  0  0  0  0  0
    8.0902    1.9424    0.0000 O   0  0  0  0  0  0  0  0  0  0  0  0
    4.5700    1.9424    0.0000 O   0  0  0  0  0  0  0  0  0  0  0  0
    5.4641   -2.8364    0.0000 O   0  0  0  0  0  0  0  0  0  0  0  0
    6.3301    1.6636    0.0000 N   0  0  0  0  0  0  0  0  0  0  0  0
    4.5981   -1.3364    0.0000 N   0  0  0  0  0  0  0  0  0  0  0  0
    6.8301    3.2024    0.0000 C   0  0  0  0  0  0  0  0  0  0  0  0
    5.8301    3.2024    0.0000 C   0  0  0  0  0  0  0  0  0  0  0  0
    7.1391    2.2514    0.0000 C   0  0  0  0  0  0  0  0  0  0  0  0
    5.5211    2.2514    0.0000 C   0  0  0  0  0  0  0  0  0  0  0  0
    6.8301    4.2024    0.0000 C   0  0  0  0  0  0  0  0  0  0  0  0
    7.7812    3.5114    0.0000 C   0  0  0  0  0  0  0  0  0  0  0  0
    6.3301    0.6636    0.0000 C   0  0  0  0  0  0  0  0  0  0  0  0
    5.4641    0.1636    0.0000 C   0  0  0  0  0  0  0  0  0  0  0  0
    7.1962    0.1636    0.0000 C   0  0  0  0  0  0  0  0  0  0  0  0
    5.4641   -0.8364    0.0000 C   0  0  0  0  0  0  0  0  0  0  0  0
    7.1962   -0.8364    0.0000 C   0  0  0  0  0  0  0  0  0  0  0  0
    6.3301   -1.3364    0.0000 C   0  0  0  0  0  0  0  0  0  0  0  0
    4.5981   -2.3364    0.0000 C   0  0  0  0  0  0  0  0  0  0  0  0
    3.7320   -2.8364    0.0000 C   0  0  0  0  0  0  0  0  0  0  0  0
    2.8660   -3.3364    0.0000 C   0  0  0  0  0  0  0  0  0  0  0  0
    5.8949    3.8190    0.0000 H   0  0  0  0  0  0  0  0  0  0  0  0
    5.2237    3.3313    0.0000 H   0  0  0  0  0  0  0  0  0  0  0  0
    7.9728    2.9218    0.0000 H   0  0  0  0  0  0  0  0  0  0  0  0
    8.3708    3.7030    0.0000 H   0  0  0  0  0  0  0  0  0  0  0  0
    7.4501    4.2024    0.0000 H   0  0  0  0  0  0  0  0  0  0  0  0
    6.8301    4.8224    0.0000 H   0  0  0  0  0  0  0  0  0  0  0  0
    6.2101    4.2024    0.0000 H   0  0  0  0  0  0  0  0  0  0  0  0
    7.5896    4.1011    0.0000 H   0  0  0  0  0  0  0  0  0  0  0  0
    4.9272    0.4736    0.0000 H   0  0  0  0  0  0  0  0  0  0  0  0
    7.7331    0.4736    0.0000 H   0  0  0  0  0  0  0  0  0  0  0  0
    7.7331   -1.1464    0.0000 H   0  0  0  0  0  0  0  0  0  0  0  0
    6.3301   -1.9564    0.0000 H   0  0  0  0  0  0  0  0  0  0  0  0
    4.0611   -1.0264    0.0000 H   0  0  0  0  0  0  0  0  0  0  0  0
  1 24  1  0  0  0  0 
  2 24  1  0  0  0  0 
  3 25  1  0  0  0  0 
  4 25  1  0  0  0  0 
  5 25  1  0  0  0  0 
  6 13  2  0  0  0  0 
  7 14  2  0  0  0  0 
  8 23  2  0  0  0  0 
  9 13  1  0  0  0  0 
  9 14  1  0  0  0  0 
  9 17  1  0  0  0  0 
 10 20  1  0  0  0  0 
 10 23  1  0  0  0  0 
 10 38  1  0  0  0  0 
 11 12  1  0  0  0  0 
 11 13  1  0  0  0  0 
 11 15  1  0  0  0  0 
 11 16  1  0  0  0  0 
 12 14  1  0  0  0  0 
 12 26  1  0  0  0  0 
 12 27  1  0  0  0  0 
 15 30  1  0  0  0  0 
 15 31  1  0  0  0  0 
 15 32  1  0  0  0  0 
 16 28  1  0  0  0  0 
 16 29  1  0  0  0  0 
 16 33  1  0  0  0  0 
 17 18  1  0  0  0  0 
 17 19  2  0  0  0  0 
 18 20  2  0  0  0  0 
 18 34  1  0  0  0  0 
 19 21  1  0  0  0  0 
 19 35  1  0  0  0  0 
 20 22  1  0  0  0  0 
 21 22  2  0  0  0  0 
 21 36  1  0  0  0  0 
 22 37  1  0  0  0  0 
 23 24  1  0  0  0  0 
 24 25  1  0  0  0  0 
M  END
> <cdk:Title>
13632598

> <cdk:Remark>
null

> <PUBCHEM_COMPOUND_CID>
13632598

> <PUBCHEM_COMPOUND_CANONICALIZED>
1

> <PUBCHEM_CACTVS_COMPLEXITY>
588

> <PUBCHEM_CACTVS_HBOND_ACCEPTOR>
8

> <PUBCHEM_CACTVS_HBOND_DONOR>
1

> <PUBCHEM_CACTVS_ROTATABLE_BOND>
3

> <PUBCHEM_CACTVS_SUBSKEYS>
AAADccBzMcAAAAAAAAAAAAAAAAAAAWAAAAAwAAAAAAAAAAABAAAAHwAQAAAADgiBkBAywIPAAACIACVSUACCAAAhAgAIiAEAZIgIIDLA0dGEIAhglCDIyAcVAAAJAAAAAAQAAAAAAAAACAAAAAAAAAAAAA==

> <PUBCHEM_IUPAC_OPENEYE_NAME>
N-[3-(3,3-dimethyl-2,5-dioxo-pyrrolidin-1-yl)phenyl]-2,2,3,3,3-pentafluoro-propanamide

> <PUBCHEM_IUPAC_CAS_NAME>
N-[3-(3,3-dimethyl-2,5-dioxo-1-pyrrolidinyl)phenyl]-2,2,3,3,3-pentafluoropropanamide

> <PUBCHEM_IUPAC_NAME>
N-[3-(3,3-dimethyl-2,5-dioxopyrrolidin-1-yl)phenyl]-2,2,3,3,3-pentafluoropropanamide

> <PUBCHEM_IUPAC_SYSTEMATIC_NAME>
N-[3-[3,3-dimethyl-2,5-bis(oxidanylidene)pyrrolidin-1-yl]phenyl]-2,2,3,3,3-pentakis(fluoranyl)propanamide

> <PUBCHEM_IUPAC_TRADITIONAL_NAME>
N-[3-(2,5-diketo-3,3-dimethyl-pyrrolidino)phenyl]-2,2,3,3,3-pentafluoro-propionamide

> <PUBCHEM_IUPAC_INCHI>
InChI=1S/C15H13F5N2O3/c1-13(2)7-10(23)22(12(13)25)9-5-3-4-8(6-9)21-11(24)14(16,17)15(18,19)20/h3-6H,7H2,1-2H3,(H,21,24)

> <PUBCHEM_IUPAC_INCHIKEY>
GJTAPIFCNVYOOR-UHFFFAOYSA-N

> <PUBCHEM_XLOGP3_AA>
2.6

> <PUBCHEM_EXACT_MASS>
364.084633

> <PUBCHEM_MOLECULAR_FORMULA>
C15H13F5N2O3

> <PUBCHEM_MOLECULAR_WEIGHT>
364.267336

> <PUBCHEM_OPENEYE_CAN_SMILES>
CC1(CC(=O)N(C1=O)C2=CC(=CC=C2)NC(=O)C(C(F)(F)F)(F)F)C

> <PUBCHEM_OPENEYE_ISO_SMILES>
CC1(CC(=O)N(C1=O)C2=CC(=CC=C2)NC(=O)C(C(F)(F)F)(F)F)C

> <PUBCHEM_CACTVS_TPSA>
66.5

> <PUBCHEM_MONOISOTOPIC_WEIGHT>
364.084633

> <PUBCHEM_TOTAL_CHARGE>
0

> <PUBCHEM_HEAVY_ATOM_COUNT>
25

> <PUBCHEM_ATOM_DEF_STEREO_COUNT>
0

> <PUBCHEM_ATOM_UDEF_STEREO_COUNT>
0

> <PUBCHEM_BOND_DEF_STEREO_COUNT>
0

> <PUBCHEM_BOND_UDEF_STEREO_COUNT>
0

> <PUBCHEM_ISOTOPIC_ATOM_COUNT>
0

> <PUBCHEM_COMPONENT_COUNT>
1

> <PUBCHEM_CACTVS_TAUTO_COUNT>
4

> <PUBCHEM_COORDINATE_TYPE>
1

> <PUBCHEM_BONDANNOTATIONS>
17  18  8

$$$$
