19772271
  CDK     1205141049

 67 69  0  0  0  0  0  0  0  0999 V2000
    5.4641    5.0600    0.0000 S   0  0  0  0  0  0  0  0  0  0  0  0
    2.8660   -6.4400    0.0000 O   0  0  0  0  0  0  0  0  0  0  0  0
    4.5981   -6.4400    0.0000 O   0  0  0  0  0  0  0  0  0  0  0  0
    5.4641   -3.9400    0.0000 O   0  0  0  0  0  0  0  0  0  0  0  0
    4.5981   -2.4400    0.0000 N   0  0  0  0  0  0  0  0  0  0  0  0
    6.3301    2.5600    0.0000 N   0  0  0  0  0  0  0  0  0  0  0  0
    3.7320   -4.9400    0.0000 C   0  0  0  0  0  0  0  0  0  0  0  0
    2.7320   -4.9400    0.0000 C   0  0  0  0  0  0  0  0  0  0  0  0
    4.7320   -4.9400    0.0000 C   0  0  0  0  0  0  0  0  0  0  0  0
    3.7320   -3.9400    0.0000 C   0  0  0  0  0  0  0  0  0  0  0  0
    3.7320   -5.9400    0.0000 C   0  0  0  0  0  0  0  0  0  0  0  0
    5.2320   -5.8060    0.0000 C   0  0  0  0  0  0  0  0  0  0  0  0
    2.2320   -4.0740    0.0000 C   0  0  0  0  0  0  0  0  0  0  0  0
    4.5981   -3.4400    0.0000 C   0  0  0  0  0  0  0  0  0  0  0  0
    5.4641   -1.9400    0.0000 C   0  0  0  0  0  0  0  0  0  0  0  0
    5.4641   -0.9400    0.0000 C   0  0  0  0  0  0  0  0  0  0  0  0
    6.3301   -2.4400    0.0000 C   0  0  0  0  0  0  0  0  0  0  0  0
    6.3301   -0.4400    0.0000 C   0  0  0  0  0  0  0  0  0  0  0  0
    7.1962   -1.9400    0.0000 C   0  0  0  0  0  0  0  0  0  0  0  0
    7.1962   -0.9400    0.0000 C   0  0  0  0  0  0  0  0  0  0  0  0
    6.3301    0.5600    0.0000 C   0  0  0  0  0  0  0  0  0  0  0  0
    7.1962    1.0600    0.0000 C   0  0  0  0  0  0  0  0  0  0  0  0
    7.1962    2.0600    0.0000 C   0  0  0  0  0  0  0  0  0  0  0  0
    6.3301    3.5600    0.0000 C   0  0  0  0  0  0  0  0  0  0  0  0
    5.4641    4.0600    0.0000 C   0  0  0  0  0  0  0  0  0  0  0  0
    8.0622    2.5600    0.0000 C   0  0  0  0  0  0  0  0  0  0  0  0
    7.1962    4.0600    0.0000 C   0  0  0  0  0  0  0  0  0  0  0  0
    8.0622    3.5600    0.0000 C   0  0  0  0  0  0  0  0  0  0  0  0
    4.5981    5.5600    0.0000 C   0  0  0  0  0  0  0  0  0  0  0  0
    2.8660    6.5600    0.0000 C   0  0  0  0  0  0  0  0  0  0  0  0
    4.5981    6.5600    0.0000 C   0  0  0  0  0  0  0  0  0  0  0  0
    3.7320    5.0600    0.0000 C   0  0  0  0  0  0  0  0  0  0  0  0
    3.7320    7.0600    0.0000 C   0  0  0  0  0  0  0  0  0  0  0  0
    2.8660    5.5600    0.0000 C   0  0  0  0  0  0  0  0  0  0  0  0
    2.0000    7.0600    0.0000 C   0  0  0  0  0  0  0  0  0  0  0  0
    2.1494   -5.1520    0.0000 H   0  0  0  0  0  0  0  0  0  0  0  0
    2.8397   -5.5506    0.0000 H   0  0  0  0  0  0  0  0  0  0  0  0
    5.3147   -4.7280    0.0000 H   0  0  0  0  0  0  0  0  0  0  0  0
    4.6244   -4.3294    0.0000 H   0  0  0  0  0  0  0  0  0  0  0  0
    3.5200   -3.3574    0.0000 H   0  0  0  0  0  0  0  0  0  0  0  0
    3.1215   -4.0477    0.0000 H   0  0  0  0  0  0  0  0  0  0  0  0
    4.6951   -6.1160    0.0000 H   0  0  0  0  0  0  0  0  0  0  0  0
    2.7690   -3.7640    0.0000 H   0  0  0  0  0  0  0  0  0  0  0  0
    1.9220   -3.5370    0.0000 H   0  0  0  0  0  0  0  0  0  0  0  0
    1.6951   -4.3840    0.0000 H   0  0  0  0  0  0  0  0  0  0  0  0
    5.5420   -6.3430    0.0000 H   0  0  0  0  0  0  0  0  0  0  0  0
    5.7690   -5.4960    0.0000 H   0  0  0  0  0  0  0  0  0  0  0  0
    4.0611   -2.1300    0.0000 H   0  0  0  0  0  0  0  0  0  0  0  0
    2.8660   -7.0600    0.0000 H   0  0  0  0  0  0  0  0  0  0  0  0
    4.9272   -0.6300    0.0000 H   0  0  0  0  0  0  0  0  0  0  0  0
    6.3301   -3.0600    0.0000 H   0  0  0  0  0  0  0  0  0  0  0  0
    7.7331   -2.2500    0.0000 H   0  0  0  0  0  0  0  0  0  0  0  0
    7.7331   -0.6300    0.0000 H   0  0  0  0  0  0  0  0  0  0  0  0
    5.7932    0.8700    0.0000 H   0  0  0  0  0  0  0  0  0  0  0  0
    7.7331    0.7500    0.0000 H   0  0  0  0  0  0  0  0  0  0  0  0
    4.8535    4.1677    0.0000 H   0  0  0  0  0  0  0  0  0  0  0  0
    5.2520    3.4774    0.0000 H   0  0  0  0  0  0  0  0  0  0  0  0
    8.5991    2.2500    0.0000 H   0  0  0  0  0  0  0  0  0  0  0  0
    7.1962    4.6800    0.0000 H   0  0  0  0  0  0  0  0  0  0  0  0
    8.5991    3.8700    0.0000 H   0  0  0  0  0  0  0  0  0  0  0  0
    5.1350    6.8700    0.0000 H   0  0  0  0  0  0  0  0  0  0  0  0
    3.7320    4.4400    0.0000 H   0  0  0  0  0  0  0  0  0  0  0  0
    3.7320    7.6800    0.0000 H   0  0  0  0  0  0  0  0  0  0  0  0
    2.3291    5.2500    0.0000 H   0  0  0  0  0  0  0  0  0  0  0  0
    2.3100    7.5969    0.0000 H   0  0  0  0  0  0  0  0  0  0  0  0
    1.4631    7.3700    0.0000 H   0  0  0  0  0  0  0  0  0  0  0  0
    1.6900    6.5231    0.0000 H   0  0  0  0  0  0  0  0  0  0  0  0
  1 25  1  0  0  0  0 
  1 29  1  0  0  0  0 
  2 11  1  0  0  0  0 
  2 49  1  0  0  0  0 
  3 11  2  0  0  0  0 
  4 14  2  0  0  0  0 
  5 14  1  0  0  0  0 
  5 15  1  0  0  0  0 
  5 48  1  0  0  0  0 
  6 23  1  0  0  0  0 
  6 24  2  0  0  0  0 
  7  8  1  0  0  0  0 
  7  9  1  0  0  0  0 
  7 10  1  0  0  0  0 
  7 11  1  0  0  0  0 
  8 13  1  0  0  0  0 
  8 36  1  0  0  0  0 
  8 37  1  0  0  0  0 
  9 12  1  0  0  0  0 
  9 38  1  0  0  0  0 
  9 39  1  0  0  0  0 
 10 14  1  0  0  0  0 
 10 40  1  0  0  0  0 
 10 41  1  0  0  0  0 
 12 42  1  0  0  0  0 
 12 46  1  0  0  0  0 
 12 47  1  0  0  0  0 
 13 43  1  0  0  0  0 
 13 44  1  0  0  0  0 
 13 45  1  0  0  0  0 
 15 16  1  0  0  0  0 
 15 17  2  0  0  0  0 
 16 18  2  0  0  0  0 
 16 50  1  0  0  0  0 
 17 19  1  0  0  0  0 
 17 51  1  0  0  0  0 
 18 20  1  0  0  0  0 
 18 21  1  0  0  0  0 
 19 20  2  0  0  0  0 
 19 52  1  0  0  0  0 
 20 53  1  0  0  0  0 
 21 22  2  0  0  0  0 
 21 54  1  0  0  0  0 
 22 23  1  0  0  0  0 
 22 55  1  0  0  0  0 
 23 26  2  0  0  0  0 
 24 25  1  0  0  0  0 
 24 27  1  0  0  0  0 
 25 56  1  0  0  0  0 
 25 57  1  0  0  0  0 
 26 28  1  0  0  0  0 
 26 58  1  0  0  0  0 
 27 28  2  0  0  0  0 
 27 59  1  0  0  0  0 
 28 60  1  0  0  0  0 
 29 31  2  0  0  0  0 
 29 32  1  0  0  0  0 
 30 33  2  0  0  0  0 
 30 34  1  0  0  0  0 
 30 35  1  0  0  0  0 
 31 33  1  0  0  0  0 
 31 61  1  0  0  0  0 
 32 34  2  0  0  0  0 
 32 62  1  0  0  0  0 
 33 63  1  0  0  0  0 
 34 64  1  0  0  0  0 
 35 65  1  0  0  0  0 
 35 66  1  0  0  0  0 
 35 67  1  0  0  0  0 
M  END
> <cdk:Title>
19772271

> <cdk:Remark>
null

> <PUBCHEM_COMPOUND_CID>
19772271

> <PUBCHEM_COMPOUND_CANONICALIZED>
1

> <PUBCHEM_CACTVS_COMPLEXITY>
700

> <PUBCHEM_CACTVS_HBOND_ACCEPTOR>
5

> <PUBCHEM_CACTVS_HBOND_DONOR>
2

> <PUBCHEM_CACTVS_ROTATABLE_BOND>
11

> <PUBCHEM_CACTVS_SUBSKEYS>
AAADcfB7MABAAAAAAAAAAAAAAAAAAAAAAAA8YIAAAAAAAAAB0AAAHgQQCAAADgiF3gCyyZLIEgioAyXyXACCgCAhCjAImDkwZJgIIPLgkZGEYAhklADoyAc/gAAPEAAAQAAAAAAgAACAAAAAAAAAAAAAAA==

> <PUBCHEM_IUPAC_OPENEYE_NAME>
2,2-diethyl-4-oxo-4-[3-[(E)-2-[6-(p-tolylsulfanylmethyl)-2-pyridyl]vinyl]anilino]butanoic acid

> <PUBCHEM_IUPAC_CAS_NAME>
2,2-diethyl-4-[3-[(E)-2-[6-[[(4-methylphenyl)thio]methyl]-2-pyridinyl]ethenyl]anilino]-4-oxobutanoic acid

> <PUBCHEM_IUPAC_NAME>
2,2-diethyl-4-[3-[(E)-2-[6-[(4-methylphenyl)sulfanylmethyl]pyridin-2-yl]ethenyl]anilino]-4-oxobutanoic acid

> <PUBCHEM_IUPAC_SYSTEMATIC_NAME>
2,2-diethyl-4-[[3-[(E)-2-[6-[(4-methylphenyl)sulfanylmethyl]pyridin-2-yl]ethenyl]phenyl]amino]-4-oxidanylidene-butanoic acid

> <PUBCHEM_IUPAC_TRADITIONAL_NAME>
2,2-diethyl-4-keto-4-[3-[(E)-2-[6-[(p-tolylthio)methyl]-2-pyridyl]vinyl]anilino]butyric acid

> <PUBCHEM_IUPAC_INCHI>
InChI=1S/C29H32N2O3S/c1-4-29(5-2,28(33)34)19-27(32)31-24-10-6-8-22(18-24)14-15-23-9-7-11-25(30-23)20-35-26-16-12-21(3)13-17-26/h6-18H,4-5,19-20H2,1-3H3,(H,31,32)(H,33,34)/b15-14+

> <PUBCHEM_IUPAC_INCHIKEY>
UHDRQAABYSILPW-CCEZHUSRSA-N

> <PUBCHEM_XLOGP3_AA>
5.8

> <PUBCHEM_EXACT_MASS>
488.213364

> <PUBCHEM_MOLECULAR_FORMULA>
C29H32N2O3S

> <PUBCHEM_MOLECULAR_WEIGHT>
488.64098

> <PUBCHEM_OPENEYE_CAN_SMILES>
CCC(CC)(CC(=O)NC1=CC=CC(=C1)C=CC2=NC(=CC=C2)CSC3=CC=C(C=C3)C)C(=O)O

> <PUBCHEM_OPENEYE_ISO_SMILES>
CCC(CC)(CC(=O)NC1=CC=CC(=C1)/C=C/C2=NC(=CC=C2)CSC3=CC=C(C=C3)C)C(=O)O

> <PUBCHEM_CACTVS_TPSA>
105

> <PUBCHEM_MONOISOTOPIC_WEIGHT>
488.213364

> <PUBCHEM_TOTAL_CHARGE>
0

> <PUBCHEM_HEAVY_ATOM_COUNT>
35

> <PUBCHEM_ATOM_DEF_STEREO_COUNT>
0

> <PUBCHEM_ATOM_UDEF_STEREO_COUNT>
0

> <PUBCHEM_BOND_DEF_STEREO_COUNT>
1

> <PUBCHEM_BOND_UDEF_STEREO_COUNT>
0

> <PUBCHEM_ISOTOPIC_ATOM_COUNT>
0

> <PUBCHEM_COMPONENT_COUNT>
1

> <PUBCHEM_CACTVS_TAUTO_COUNT>
3

> <PUBCHEM_COORDINATE_TYPE>
1

> <PUBCHEM_BONDANNOTATIONS>
15  16  8

$$$$
19772271
  CDK     1205141050

 67 69  0  0  0  0  0  0  0  0999 V2000
    5.4641    5.0600    0.0000 S   0  0  0  0  0  0  0  0  0  0  0  0
    2.8660   -6.4400    0.0000 O   0  0  0  0  0  0  0  0  0  0  0  0
    4.5981   -6.4400    0.0000 O   0  0  0  0  0  0  0  0  0  0  0  0
    5.4641   -3.9400    0.0000 O   0  0  0  0  0  0  0  0  0  0  0  0
    4.5981   -2.4400    0.0000 N   0  0  0  0  0  0  0  0  0  0  0  0
    6.3301    2.5600    0.0000 N   0  0  0  0  0  0  0  0  0  0  0  0
    3.7320   -4.9400    0.0000 C   0  0  0  0  0  0  0  0  0  0  0  0
    2.7320   -4.9400    0.0000 C   0  0  0  0  0  0  0  0  0  0  0  0
    4.7320   -4.9400    0.0000 C   0  0  0  0  0  0  0  0  0  0  0  0
    3.7320   -3.9400    0.0000 C   0  0  0  0  0  0  0  0  0  0  0  0
    3.7320   -5.9400    0.0000 C   0  0  0  0  0  0  0  0  0  0  0  0
    5.2320   -5.8060    0.0000 C   0  0  0  0  0  0  0  0  0  0  0  0
    2.2320   -4.0740    0.0000 C   0  0  0  0  0  0  0  0  0  0  0  0
    4.5981   -3.4400    0.0000 C   0  0  0  0  0  0  0  0  0  0  0  0
    5.4641   -1.9400    0.0000 C   0  0  0  0  0  0  0  0  0  0  0  0
    5.4641   -0.9400    0.0000 C   0  0  0  0  0  0  0  0  0  0  0  0
    6.3301   -2.4400    0.0000 C   0  0  0  0  0  0  0  0  0  0  0  0
    6.3301   -0.4400    0.0000 C   0  0  0  0  0  0  0  0  0  0  0  0
    7.1962   -1.9400    0.0000 C   0  0  0  0  0  0  0  0  0  0  0  0
    7.1962   -0.9400    0.0000 C   0  0  0  0  0  0  0  0  0  0  0  0
    6.3301    0.5600    0.0000 C   0  0  0  0  0  0  0  0  0  0  0  0
    7.1962    1.0600    0.0000 C   0  0  0  0  0  0  0  0  0  0  0  0
    7.1962    2.0600    0.0000 C   0  0  0  0  0  0  0  0  0  0  0  0
    6.3301    3.5600    0.0000 C   0  0  0  0  0  0  0  0  0  0  0  0
    5.4641    4.0600    0.0000 C   0  0  0  0  0  0  0  0  0  0  0  0
    8.0622    2.5600    0.0000 C   0  0  0  0  0  0  0  0  0  0  0  0
    7.1962    4.0600    0.0000 C   0  0  0  0  0  0  0  0  0  0  0  0
    8.0622    3.5600    0.0000 C   0  0  0  0  0  0  0  0  0  0  0  0
    4.5981    5.5600    0.0000 C   0  0  0  0  0  0  0  0  0  0  0  0
    2.8660    6.5600    0.0000 C   0  0  0  0  0  0  0  0  0  0  0  0
    4.5981    6.5600    0.0000 C   0  0  0  0  0  0  0  0  0  0  0  0
    3.7320    5.0600    0.0000 C   0  0  0  0  0  0  0  0  0  0  0  0
    3.7320    7.0600    0.0000 C   0  0  0  0  0  0  0  0  0  0  0  0
    2.8660    5.5600    0.0000 C   0  0  0  0  0  0  0  0  0  0  0  0
    2.0000    7.0600    0.0000 C   0  0  0  0  0  0  0  0  0  0  0  0
    2.1494   -5.1520    0.0000 H   0  0  0  0  0  0  0  0  0  0  0  0
    2.8397   -5.5506    0.0000 H   0  0  0  0  0  0  0  0  0  0  0  0
    5.3147   -4.7280    0.0000 H   0  0  0  0  0  0  0  0  0  0  0  0
    4.6244   -4.3294    0.0000 H   0  0  0  0  0  0  0  0  0  0  0  0
    3.5200   -3.3574    0.0000 H   0  0  0  0  0  0  0  0  0  0  0  0
    3.1215   -4.0477    0.0000 H   0  0  0  0  0  0  0  0  0  0  0  0
    4.6951   -6.1160    0.0000 H   0  0  0  0  0  0  0  0  0  0  0  0
    2.7690   -3.7640    0.0000 H   0  0  0  0  0  0  0  0  0  0  0  0
    1.9220   -3.5370    0.0000 H   0  0  0  0  0  0  0  0  0  0  0  0
    1.6951   -4.3840    0.0000 H   0  0  0  0  0  0  0  0  0  0  0  0
    5.5420   -6.3430    0.0000 H   0  0  0  0  0  0  0  0  0  0  0  0
    5.7690   -5.4960    0.0000 H   0  0  0  0  0  0  0  0  0  0  0  0
    4.0611   -2.1300    0.0000 H   0  0  0  0  0  0  0  0  0  0  0  0
    2.8660   -7.0600    0.0000 H   0  0  0  0  0  0  0  0  0  0  0  0
    4.9272   -0.6300    0.0000 H   0  0  0  0  0  0  0  0  0  0  0  0
    6.3301   -3.0600    0.0000 H   0  0  0  0  0  0  0  0  0  0  0  0
    7.7331   -2.2500    0.0000 H   0  0  0  0  0  0  0  0  0  0  0  0
    7.7331   -0.6300    0.0000 H   0  0  0  0  0  0  0  0  0  0  0  0
    5.7932    0.8700    0.0000 H   0  0  0  0  0  0  0  0  0  0  0  0
    7.7331    0.7500    0.0000 H   0  0  0  0  0  0  0  0  0  0  0  0
    4.8535    4.1677    0.0000 H   0  0  0  0  0  0  0  0  0  0  0  0
    5.2520    3.4774    0.0000 H   0  0  0  0  0  0  0  0  0  0  0  0
    8.5991    2.2500    0.0000 H   0  0  0  0  0  0  0  0  0  0  0  0
    7.1962    4.6800    0.0000 H   0  0  0  0  0  0  0  0  0  0  0  0
    8.5991    3.8700    0.0000 H   0  0  0  0  0  0  0  0  0  0  0  0
    5.1350    6.8700    0.0000 H   0  0  0  0  0  0  0  0  0  0  0  0
    3.7320    4.4400    0.0000 H   0  0  0  0  0  0  0  0  0  0  0  0
    3.7320    7.6800    0.0000 H   0  0  0  0  0  0  0  0  0  0  0  0
    2.3291    5.2500    0.0000 H   0  0  0  0  0  0  0  0  0  0  0  0
    2.3100    7.5969    0.0000 H   0  0  0  0  0  0  0  0  0  0  0  0
    1.4631    7.3700    0.0000 H   0  0  0  0  0  0  0  0  0  0  0  0
    1.6900    6.5231    0.0000 H   0  0  0  0  0  0  0  0  0  0  0  0
  1 25  1  0  0  0  0 
  1 29  1  0  0  0  0 
  2 11  1  0  0  0  0 
  2 49  1  0  0  0  0 
  3 11  2  0  0  0  0 
  4 14  2  0  0  0  0 
  5 14  1  0  0  0  0 
  5 15  1  0  0  0  0 
  5 48  1  0  0  0  0 
  6 23  1  0  0  0  0 
  6 24  2  0  0  0  0 
  7  8  1  0  0  0  0 
  7  9  1  0  0  0  0 
  7 10  1  0  0  0  0 
  7 11  1  0  0  0  0 
  8 13  1  0  0  0  0 
  8 36  1  0  0  0  0 
  8 37  1  0  0  0  0 
  9 12  1  0  0  0  0 
  9 38  1  0  0  0  0 
  9 39  1  0  0  0  0 
 10 14  1  0  0  0  0 
 10 40  1  0  0  0  0 
 10 41  1  0  0  0  0 
 12 42  1  0  0  0  0 
 12 46  1  0  0  0  0 
 12 47  1  0  0  0  0 
 13 43  1  0  0  0  0 
 13 44  1  0  0  0  0 
 13 45  1  0  0  0  0 
 15 16  1  0  0  0  0 
 15 17  2  0  0  0  0 
 16 18  2  0  0  0  0 
 16 50  1  0  0  0  0 
 17 19  1  0  0  0  0 
 17 51  1  0  0  0  0 
 18 20  1  0  0  0  0 
 18 21  1  0  0  0  0 
 19 20  2  0  0  0  0 
 19 52  1  0  0  0  0 
 20 53  1  0  0  0  0 
 21 22  2  0  0  0  0 
 21 54  1  0  0  0  0 
 22 23  1  0  0  0  0 
 22 55  1  0  0  0  0 
 23 26  2  0  0  0  0 
 24 25  1  0  0  0  0 
 24 27  1  0  0  0  0 
 25 56  1  0  0  0  0 
 25 57  1  0  0  0  0 
 26 28  1  0  0  0  0 
 26 58  1  0  0  0  0 
 27 28  2  0  0  0  0 
 27 59  1  0  0  0  0 
 28 60  1  0  0  0  0 
 29 31  2  0  0  0  0 
 29 32  1  0  0  0  0 
 30 33  2  0  0  0  0 
 30 34  1  0  0  0  0 
 30 35  1  0  0  0  0 
 31 33  1  0  0  0  0 
 31 61  1  0  0  0  0 
 32 34  2  0  0  0  0 
 32 62  1  0  0  0  0 
 33 63  1  0  0  0  0 
 34 64  1  0  0  0  0 
 35 65  1  0  0  0  0 
 35 66  1  0  0  0  0 
 35 67  1  0  0  0  0 
M  END
> <cdk:Title>
19772271

> <cdk:Remark>
null

> <PUBCHEM_COMPOUND_CID>
19772271

> <PUBCHEM_COMPOUND_CANONICALIZED>
1

> <PUBCHEM_CACTVS_COMPLEXITY>
700

> <PUBCHEM_CACTVS_HBOND_ACCEPTOR>
5

> <PUBCHEM_CACTVS_HBOND_DONOR>
2

> <PUBCHEM_CACTVS_ROTATABLE_BOND>
11

> <PUBCHEM_CACTVS_SUBSKEYS>
AAADcfB7MABAAAAAAAAAAAAAAAAAAAAAAAA8YIAAAAAAAAAB0AAAHgQQCAAADgiF3gCyyZLIEgioAyXyXACCgCAhCjAImDkwZJgIIPLgkZGEYAhklADoyAc/gAAPEAAAQAAAAAAgAACAAAAAAAAAAAAAAA==

> <PUBCHEM_IUPAC_OPENEYE_NAME>
2,2-diethyl-4-oxo-4-[3-[(E)-2-[6-(p-tolylsulfanylmethyl)-2-pyridyl]vinyl]anilino]butanoic acid

> <PUBCHEM_IUPAC_CAS_NAME>
2,2-diethyl-4-[3-[(E)-2-[6-[[(4-methylphenyl)thio]methyl]-2-pyridinyl]ethenyl]anilino]-4-oxobutanoic acid

> <PUBCHEM_IUPAC_NAME>
2,2-diethyl-4-[3-[(E)-2-[6-[(4-methylphenyl)sulfanylmethyl]pyridin-2-yl]ethenyl]anilino]-4-oxobutanoic acid

> <PUBCHEM_IUPAC_SYSTEMATIC_NAME>
2,2-diethyl-4-[[3-[(E)-2-[6-[(4-methylphenyl)sulfanylmethyl]pyridin-2-yl]ethenyl]phenyl]amino]-4-oxidanylidene-butanoic acid

> <PUBCHEM_IUPAC_TRADITIONAL_NAME>
2,2-diethyl-4-keto-4-[3-[(E)-2-[6-[(p-tolylthio)methyl]-2-pyridyl]vinyl]anilino]butyric acid

> <PUBCHEM_IUPAC_INCHI>
InChI=1S/C29H32N2O3S/c1-4-29(5-2,28(33)34)19-27(32)31-24-10-6-8-22(18-24)14-15-23-9-7-11-25(30-23)20-35-26-16-12-21(3)13-17-26/h6-18H,4-5,19-20H2,1-3H3,(H,31,32)(H,33,34)/b15-14+

> <PUBCHEM_IUPAC_INCHIKEY>
UHDRQAABYSILPW-CCEZHUSRSA-N

> <PUBCHEM_XLOGP3_AA>
5.8

> <PUBCHEM_EXACT_MASS>
488.213364

> <PUBCHEM_MOLECULAR_FORMULA>
C29H32N2O3S

> <PUBCHEM_MOLECULAR_WEIGHT>
488.64098

> <PUBCHEM_OPENEYE_CAN_SMILES>
CCC(CC)(CC(=O)NC1=CC=CC(=C1)C=CC2=NC(=CC=C2)CSC3=CC=C(C=C3)C)C(=O)O

> <PUBCHEM_OPENEYE_ISO_SMILES>
CCC(CC)(CC(=O)NC1=CC=CC(=C1)/C=C/C2=NC(=CC=C2)CSC3=CC=C(C=C3)C)C(=O)O

> <PUBCHEM_CACTVS_TPSA>
105

> <PUBCHEM_MONOISOTOPIC_WEIGHT>
488.213364

> <PUBCHEM_TOTAL_CHARGE>
0

> <PUBCHEM_HEAVY_ATOM_COUNT>
35

> <PUBCHEM_ATOM_DEF_STEREO_COUNT>
0

> <PUBCHEM_ATOM_UDEF_STEREO_COUNT>
0

> <PUBCHEM_BOND_DEF_STEREO_COUNT>
1

> <PUBCHEM_BOND_UDEF_STEREO_COUNT>
0

> <PUBCHEM_ISOTOPIC_ATOM_COUNT>
0

> <PUBCHEM_COMPONENT_COUNT>
1

> <PUBCHEM_CACTVS_TAUTO_COUNT>
3

> <PUBCHEM_COORDINATE_TYPE>
1

> <PUBCHEM_BONDANNOTATIONS>
15  16  8

$$$$
