25309802
  CDK     1205141049

 69 72  0  0  0  0  0  0  0  0999 V2000
    3.4782    1.9945    0.0000 S   0  0  0  0  0  0  0  0  0  0  0  0
    7.9128   -0.5000    0.0000 O   0  0  0  0  0  0  0  0  0  0  0  0
    5.3147    2.0000    0.0000 O   0  0  0  0  0  0  0  0  0  0  0  0
    8.7788    4.0000    0.0000 O   0  0  0  0  0  0  0  0  0  0  0  0
    5.3147   -4.0000    0.0000 O   0  0  0  0  0  0  0  0  0  0  0  0
    7.0468   -4.0000    0.0000 O   0  0  0  0  0  0  0  0  0  0  0  0
    8.7788    1.0000    0.0000 N   0  0  0  0  0  0  0  0  0  0  0  0
    6.1808    0.5000    0.0000 N   0  0  0  0  0  0  0  0  0  0  0  0
    9.6448    0.5000    0.0000 C   0  0  0  0  0  0  0  0  0  0  0  0
    9.6448   -0.5000    0.0000 C   0  0  0  0  0  0  0  0  0  0  0  0
   10.5109    1.0000    0.0000 C   0  0  0  0  0  0  0  0  0  0  0  0
   10.5109   -1.0000    0.0000 C   0  0  0  0  0  0  0  0  0  0  0  0
   11.3769    0.5000    0.0000 C   0  0  0  0  0  0  0  0  0  0  0  0
   11.3769   -0.5000    0.0000 C   0  0  0  0  0  0  0  0  0  0  0  0
    7.9128    0.5000    0.0000 C   0  0  0  0  0  0  0  0  0  0  0  0
    7.0468    1.0000    0.0000 C   0  0  1  0  0  0  0  0  0  0  0  0
    7.0468    2.0000    0.0000 C   0  0  0  0  0  0  0  0  0  0  0  0
    6.1808   -0.5000    0.0000 C   0  0  0  0  0  0  0  0  0  0  0  0
    5.3147    1.0000    0.0000 C   0  0  0  0  0  0  0  0  0  0  0  0
    7.9128    2.5000    0.0000 C   0  0  0  0  0  0  0  0  0  0  0  0
    6.1808    2.5000    0.0000 C   0  0  0  0  0  0  0  0  0  0  0  0
    4.4487    0.5000    0.0000 C   0  0  0  0  0  0  0  0  0  0  0  0
    7.0468   -1.0000    0.0000 C   0  0  0  0  0  0  0  0  0  0  0  0
    5.3147   -1.0000    0.0000 C   0  0  0  0  0  0  0  0  0  0  0  0
    7.9128    3.5000    0.0000 C   0  0  0  0  0  0  0  0  0  0  0  0
    6.1808    3.5000    0.0000 C   0  0  0  0  0  0  0  0  0  0  0  0
    7.0468    4.0000    0.0000 C   0  0  0  0  0  0  0  0  0  0  0  0
    3.5827    1.0000    0.0000 C   0  0  0  0  0  0  0  0  0  0  0  0
    7.0468   -2.0000    0.0000 C   0  0  0  0  0  0  0  0  0  0  0  0
    5.3147   -2.0000    0.0000 C   0  0  0  0  0  0  0  0  0  0  0  0
    6.1808   -2.5000    0.0000 C   0  0  0  0  0  0  0  0  0  0  0  0
    2.6691    0.5933    0.0000 C   0  0  0  0  0  0  0  0  0  0  0  0
    6.1808   -3.5000    0.0000 C   0  0  0  0  0  0  0  0  0  0  0  0
    2.0000    1.3364    0.0000 C   0  0  0  0  0  0  0  0  0  0  0  0
    2.5000    2.2024    0.0000 C   0  0  0  0  0  0  0  0  0  0  0  0
    8.7788    5.0000    0.0000 C   0  0  0  0  0  0  0  0  0  0  0  0
    5.3147   -5.0000    0.0000 C   0  0  0  0  0  0  0  0  0  0  0  0
    9.1079    0.1900    0.0000 H   0  0  0  0  0  0  0  0  0  0  0  0
   10.9094    1.4750    0.0000 H   0  0  0  0  0  0  0  0  0  0  0  0
   10.1124    1.4750    0.0000 H   0  0  0  0  0  0  0  0  0  0  0  0
    9.0343   -0.3923    0.0000 H   0  0  0  0  0  0  0  0  0  0  0  0
    9.4328   -1.0826    0.0000 H   0  0  0  0  0  0  0  0  0  0  0  0
   11.9875    0.3923    0.0000 H   0  0  0  0  0  0  0  0  0  0  0  0
   11.5890    1.0826    0.0000 H   0  0  0  0  0  0  0  0  0  0  0  0
   10.1124   -1.4750    0.0000 H   0  0  0  0  0  0  0  0  0  0  0  0
   10.9094   -1.4750    0.0000 H   0  0  0  0  0  0  0  0  0  0  0  0
   11.5890   -1.0826    0.0000 H   0  0  0  0  0  0  0  0  0  0  0  0
   11.9875   -0.3923    0.0000 H   0  0  0  0  0  0  0  0  0  0  0  0
    8.7788    1.6200    0.0000 H   0  0  0  0  0  0  0  0  0  0  0  0
    7.0468    0.3800    0.0000 H   0  0  0  0  0  0  0  0  0  0  0  0
    8.4497    2.1900    0.0000 H   0  0  0  0  0  0  0  0  0  0  0  0
    5.6438    2.1900    0.0000 H   0  0  0  0  0  0  0  0  0  0  0  0
    4.0502    0.0251    0.0000 H   0  0  0  0  0  0  0  0  0  0  0  0
    4.8472    0.0251    0.0000 H   0  0  0  0  0  0  0  0  0  0  0  0
    7.5837   -0.6900    0.0000 H   0  0  0  0  0  0  0  0  0  0  0  0
    4.7778   -0.6900    0.0000 H   0  0  0  0  0  0  0  0  0  0  0  0
    5.6438    3.8100    0.0000 H   0  0  0  0  0  0  0  0  0  0  0  0
    7.0468    4.6200    0.0000 H   0  0  0  0  0  0  0  0  0  0  0  0
    7.5837   -2.3100    0.0000 H   0  0  0  0  0  0  0  0  0  0  0  0
    4.7778   -2.3100    0.0000 H   0  0  0  0  0  0  0  0  0  0  0  0
    2.5402   -0.0132    0.0000 H   0  0  0  0  0  0  0  0  0  0  0  0
    1.3834    1.2716    0.0000 H   0  0  0  0  0  0  0  0  0  0  0  0
    2.2478    2.7688    0.0000 H   0  0  0  0  0  0  0  0  0  0  0  0
    9.3988    5.0000    0.0000 H   0  0  0  0  0  0  0  0  0  0  0  0
    8.7788    5.6200    0.0000 H   0  0  0  0  0  0  0  0  0  0  0  0
    8.1588    5.0000    0.0000 H   0  0  0  0  0  0  0  0  0  0  0  0
    4.6947   -5.0000    0.0000 H   0  0  0  0  0  0  0  0  0  0  0  0
    5.3147   -5.6200    0.0000 H   0  0  0  0  0  0  0  0  0  0  0  0
    5.9347   -5.0000    0.0000 H   0  0  0  0  0  0  0  0  0  0  0  0
  1 28  1  0  0  0  0 
  1 35  1  0  0  0  0 
  2 15  2  0  0  0  0 
  3 19  2  0  0  0  0 
  4 25  1  0  0  0  0 
  4 36  1  0  0  0  0 
  5 33  1  0  0  0  0 
  5 37  1  0  0  0  0 
  6 33  2  0  0  0  0 
  7  9  1  0  0  0  0 
  7 15  1  0  0  0  0 
  7 49  1  0  0  0  0 
 16  8  1  6  0  0  0 
  8 18  1  0  0  0  0 
  8 19  1  0  0  0  0 
  9 10  1  0  0  0  0 
  9 11  1  0  0  0  0 
  9 38  1  0  0  0  0 
 10 12  1  0  0  0  0 
 10 41  1  0  0  0  0 
 10 42  1  0  0  0  0 
 11 13  1  0  0  0  0 
 11 39  1  0  0  0  0 
 11 40  1  0  0  0  0 
 12 14  1  0  0  0  0 
 12 45  1  0  0  0  0 
 12 46  1  0  0  0  0 
 13 14  1  0  0  0  0 
 13 43  1  0  0  0  0 
 13 44  1  0  0  0  0 
 14 47  1  0  0  0  0 
 14 48  1  0  0  0  0 
 15 16  1  0  0  0  0 
 16 17  1  0  0  0  0 
 16 50  1  0  0  0  0 
 17 20  2  0  0  0  0 
 17 21  1  0  0  0  0 
 18 23  2  0  0  0  0 
 18 24  1  0  0  0  0 
 19 22  1  0  0  0  0 
 20 25  1  0  0  0  0 
 20 51  1  0  0  0  0 
 21 26  2  0  0  0  0 
 21 52  1  0  0  0  0 
 22 28  1  0  0  0  0 
 22 53  1  0  0  0  0 
 22 54  1  0  0  0  0 
 23 29  1  0  0  0  0 
 23 55  1  0  0  0  0 
 24 30  2  0  0  0  0 
 24 56  1  0  0  0  0 
 25 27  2  0  0  0  0 
 26 27  1  0  0  0  0 
 26 57  1  0  0  0  0 
 27 58  1  0  0  0  0 
 28 32  2  0  0  0  0 
 29 31  2  0  0  0  0 
 29 59  1  0  0  0  0 
 30 31  1  0  0  0  0 
 30 60  1  0  0  0  0 
 31 33  1  0  0  0  0 
 32 34  1  0  0  0  0 
 32 61  1  0  0  0  0 
 34 35  2  0  0  0  0 
 34 62  1  0  0  0  0 
 35 63  1  0  0  0  0 
 36 64  1  0  0  0  0 
 36 65  1  0  0  0  0 
 36 66  1  0  0  0  0 
 37 67  1  0  0  0  0 
 37 68  1  0  0  0  0 
 37 69  1  0  0  0  0 
M  END
> <cdk:Title>
25309802

> <cdk:Remark>
null

> <PUBCHEM_COMPOUND_CID>
25309802

> <PUBCHEM_COMPOUND_CANONICALIZED>
1

> <PUBCHEM_CACTVS_COMPLEXITY>
765

> <PUBCHEM_CACTVS_HBOND_ACCEPTOR>
6

> <PUBCHEM_CACTVS_HBOND_DONOR>
1

> <PUBCHEM_CACTVS_ROTATABLE_BOND>
10

> <PUBCHEM_CACTVS_SUBSKEYS>
AAADcfB7OABAAAAAAAAAAAAAAAAAASAAAAAwYMAAAAAAAAAB0AAAHgQQAAAADCzF2Aayz4PABAiMAiXSWACDCIAlKhBIiJmObMgMZjLktbuUMShk1hHo6Ye43bPeCAABAAAAAAAQAAIAAAAAAAAAAAAAAA==

> <PUBCHEM_IUPAC_OPENEYE_NAME>
methyl 4-[[(1R)-2-(cyclohexylamino)-1-(3-methoxyphenyl)-2-oxo-ethyl]-[2-(2-thienyl)acetyl]amino]benzoate

> <PUBCHEM_IUPAC_CAS_NAME>
4-[[(1R)-2-(cyclohexylamino)-1-(3-methoxyphenyl)-2-oxoethyl]-(1-oxo-2-thiophen-2-ylethyl)amino]benzoic acid methyl ester

> <PUBCHEM_IUPAC_NAME>
methyl 4-[[(1R)-2-(cyclohexylamino)-1-(3-methoxyphenyl)-2-oxoethyl]-(2-thiophen-2-ylacetyl)amino]benzoate

> <PUBCHEM_IUPAC_SYSTEMATIC_NAME>
methyl 4-[[(1R)-2-(cyclohexylamino)-1-(3-methoxyphenyl)-2-oxidanylidene-ethyl]-(2-thiophen-2-ylethanoyl)amino]benzoate

> <PUBCHEM_IUPAC_TRADITIONAL_NAME>
4-[[(1R)-2-(cyclohexylamino)-2-keto-1-(3-methoxyphenyl)ethyl]-[2-(2-thienyl)acetyl]amino]benzoic acid methyl ester

> <PUBCHEM_IUPAC_INCHI>
InChI=1S/C29H32N2O5S/c1-35-24-11-6-8-21(18-24)27(28(33)30-22-9-4-3-5-10-22)31(26(32)19-25-12-7-17-37-25)23-15-13-20(14-16-23)29(34)36-2/h6-8,11-18,22,27H,3-5,9-10,19H2,1-2H3,(H,30,33)/t27-/m1/s1

> <PUBCHEM_IUPAC_INCHIKEY>
UPCJBARXNHIPBV-HHHXNRCGSA-N

> <PUBCHEM_XLOGP3_AA>
5.3

> <PUBCHEM_EXACT_MASS>
520.203193

> <PUBCHEM_MOLECULAR_FORMULA>
C29H32N2O5S

> <PUBCHEM_MOLECULAR_WEIGHT>
520.63978

> <PUBCHEM_OPENEYE_CAN_SMILES>
COC1=CC=CC(=C1)C(C(=O)NC2CCCCC2)N(C3=CC=C(C=C3)C(=O)OC)C(=O)CC4=CC=CS4

> <PUBCHEM_OPENEYE_ISO_SMILES>
COC1=CC=CC(=C1)[C@H](C(=O)NC2CCCCC2)N(C3=CC=C(C=C3)C(=O)OC)C(=O)CC4=CC=CS4

> <PUBCHEM_CACTVS_TPSA>
113

> <PUBCHEM_MONOISOTOPIC_WEIGHT>
520.203193

> <PUBCHEM_TOTAL_CHARGE>
0

> <PUBCHEM_HEAVY_ATOM_COUNT>
37

> <PUBCHEM_ATOM_DEF_STEREO_COUNT>
1

> <PUBCHEM_ATOM_UDEF_STEREO_COUNT>
0

> <PUBCHEM_BOND_DEF_STEREO_COUNT>
0

> <PUBCHEM_BOND_UDEF_STEREO_COUNT>
0

> <PUBCHEM_ISOTOPIC_ATOM_COUNT>
0

> <PUBCHEM_COMPONENT_COUNT>
1

> <PUBCHEM_CACTVS_TAUTO_COUNT>
2

> <PUBCHEM_COORDINATE_TYPE>
1

> <PUBCHEM_BONDANNOTATIONS>
1  28  8

$$$$
25309802
  CDK     1205141050

 69 72  0  0  0  0  0  0  0  0999 V2000
    3.4782    1.9945    0.0000 S   0  0  0  0  0  0  0  0  0  0  0  0
    7.9128   -0.5000    0.0000 O   0  0  0  0  0  0  0  0  0  0  0  0
    5.3147    2.0000    0.0000 O   0  0  0  0  0  0  0  0  0  0  0  0
    8.7788    4.0000    0.0000 O   0  0  0  0  0  0  0  0  0  0  0  0
    5.3147   -4.0000    0.0000 O   0  0  0  0  0  0  0  0  0  0  0  0
    7.0468   -4.0000    0.0000 O   0  0  0  0  0  0  0  0  0  0  0  0
    8.7788    1.0000    0.0000 N   0  0  0  0  0  0  0  0  0  0  0  0
    6.1808    0.5000    0.0000 N   0  0  0  0  0  0  0  0  0  0  0  0
    9.6448    0.5000    0.0000 C   0  0  0  0  0  0  0  0  0  0  0  0
    9.6448   -0.5000    0.0000 C   0  0  0  0  0  0  0  0  0  0  0  0
   10.5109    1.0000    0.0000 C   0  0  0  0  0  0  0  0  0  0  0  0
   10.5109   -1.0000    0.0000 C   0  0  0  0  0  0  0  0  0  0  0  0
   11.3769    0.5000    0.0000 C   0  0  0  0  0  0  0  0  0  0  0  0
   11.3769   -0.5000    0.0000 C   0  0  0  0  0  0  0  0  0  0  0  0
    7.9128    0.5000    0.0000 C   0  0  0  0  0  0  0  0  0  0  0  0
    7.0468    1.0000    0.0000 C   0  0  1  0  0  0  0  0  0  0  0  0
    7.0468    2.0000    0.0000 C   0  0  0  0  0  0  0  0  0  0  0  0
    6.1808   -0.5000    0.0000 C   0  0  0  0  0  0  0  0  0  0  0  0
    5.3147    1.0000    0.0000 C   0  0  0  0  0  0  0  0  0  0  0  0
    7.9128    2.5000    0.0000 C   0  0  0  0  0  0  0  0  0  0  0  0
    6.1808    2.5000    0.0000 C   0  0  0  0  0  0  0  0  0  0  0  0
    4.4487    0.5000    0.0000 C   0  0  0  0  0  0  0  0  0  0  0  0
    7.0468   -1.0000    0.0000 C   0  0  0  0  0  0  0  0  0  0  0  0
    5.3147   -1.0000    0.0000 C   0  0  0  0  0  0  0  0  0  0  0  0
    7.9128    3.5000    0.0000 C   0  0  0  0  0  0  0  0  0  0  0  0
    6.1808    3.5000    0.0000 C   0  0  0  0  0  0  0  0  0  0  0  0
    7.0468    4.0000    0.0000 C   0  0  0  0  0  0  0  0  0  0  0  0
    3.5827    1.0000    0.0000 C   0  0  0  0  0  0  0  0  0  0  0  0
    7.0468   -2.0000    0.0000 C   0  0  0  0  0  0  0  0  0  0  0  0
    5.3147   -2.0000    0.0000 C   0  0  0  0  0  0  0  0  0  0  0  0
    6.1808   -2.5000    0.0000 C   0  0  0  0  0  0  0  0  0  0  0  0
    2.6691    0.5933    0.0000 C   0  0  0  0  0  0  0  0  0  0  0  0
    6.1808   -3.5000    0.0000 C   0  0  0  0  0  0  0  0  0  0  0  0
    2.0000    1.3364    0.0000 C   0  0  0  0  0  0  0  0  0  0  0  0
    2.5000    2.2024    0.0000 C   0  0  0  0  0  0  0  0  0  0  0  0
    8.7788    5.0000    0.0000 C   0  0  0  0  0  0  0  0  0  0  0  0
    5.3147   -5.0000    0.0000 C   0  0  0  0  0  0  0  0  0  0  0  0
    9.1079    0.1900    0.0000 H   0  0  0  0  0  0  0  0  0  0  0  0
   10.9094    1.4750    0.0000 H   0  0  0  0  0  0  0  0  0  0  0  0
   10.1124    1.4750    0.0000 H   0  0  0  0  0  0  0  0  0  0  0  0
    9.0343   -0.3923    0.0000 H   0  0  0  0  0  0  0  0  0  0  0  0
    9.4328   -1.0826    0.0000 H   0  0  0  0  0  0  0  0  0  0  0  0
   11.9875    0.3923    0.0000 H   0  0  0  0  0  0  0  0  0  0  0  0
   11.5890    1.0826    0.0000 H   0  0  0  0  0  0  0  0  0  0  0  0
   10.1124   -1.4750    0.0000 H   0  0  0  0  0  0  0  0  0  0  0  0
   10.9094   -1.4750    0.0000 H   0  0  0  0  0  0  0  0  0  0  0  0
   11.5890   -1.0826    0.0000 H   0  0  0  0  0  0  0  0  0  0  0  0
   11.9875   -0.3923    0.0000 H   0  0  0  0  0  0  0  0  0  0  0  0
    8.7788    1.6200    0.0000 H   0  0  0  0  0  0  0  0  0  0  0  0
    7.0468    0.3800    0.0000 H   0  0  0  0  0  0  0  0  0  0  0  0
    8.4497    2.1900    0.0000 H   0  0  0  0  0  0  0  0  0  0  0  0
    5.6438    2.1900    0.0000 H   0  0  0  0  0  0  0  0  0  0  0  0
    4.0502    0.0251    0.0000 H   0  0  0  0  0  0  0  0  0  0  0  0
    4.8472    0.0251    0.0000 H   0  0  0  0  0  0  0  0  0  0  0  0
    7.5837   -0.6900    0.0000 H   0  0  0  0  0  0  0  0  0  0  0  0
    4.7778   -0.6900    0.0000 H   0  0  0  0  0  0  0  0  0  0  0  0
    5.6438    3.8100    0.0000 H   0  0  0  0  0  0  0  0  0  0  0  0
    7.0468    4.6200    0.0000 H   0  0  0  0  0  0  0  0  0  0  0  0
    7.5837   -2.3100    0.0000 H   0  0  0  0  0  0  0  0  0  0  0  0
    4.7778   -2.3100    0.0000 H   0  0  0  0  0  0  0  0  0  0  0  0
    2.5402   -0.0132    0.0000 H   0  0  0  0  0  0  0  0  0  0  0  0
    1.3834    1.2716    0.0000 H   0  0  0  0  0  0  0  0  0  0  0  0
    2.2478    2.7688    0.0000 H   0  0  0  0  0  0  0  0  0  0  0  0
    9.3988    5.0000    0.0000 H   0  0  0  0  0  0  0  0  0  0  0  0
    8.7788    5.6200    0.0000 H   0  0  0  0  0  0  0  0  0  0  0  0
    8.1588    5.0000    0.0000 H   0  0  0  0  0  0  0  0  0  0  0  0
    4.6947   -5.0000    0.0000 H   0  0  0  0  0  0  0  0  0  0  0  0
    5.3147   -5.6200    0.0000 H   0  0  0  0  0  0  0  0  0  0  0  0
    5.9347   -5.0000    0.0000 H   0  0  0  0  0  0  0  0  0  0  0  0
  1 28  1  0  0  0  0 
  1 35  1  0  0  0  0 
  2 15  2  0  0  0  0 
  3 19  2  0  0  0  0 
  4 25  1  0  0  0  0 
  4 36  1  0  0  0  0 
  5 33  1  0  0  0  0 
  5 37  1  0  0  0  0 
  6 33  2  0  0  0  0 
  7  9  1  0  0  0  0 
  7 15  1  0  0  0  0 
  7 49  1  0  0  0  0 
 16  8  1  6  0  0  0 
  8 18  1  0  0  0  0 
  8 19  1  0  0  0  0 
  9 10  1  0  0  0  0 
  9 11  1  0  0  0  0 
  9 38  1  0  0  0  0 
 10 12  1  0  0  0  0 
 10 41  1  0  0  0  0 
 10 42  1  0  0  0  0 
 11 13  1  0  0  0  0 
 11 39  1  0  0  0  0 
 11 40  1  0  0  0  0 
 12 14  1  0  0  0  0 
 12 45  1  0  0  0  0 
 12 46  1  0  0  0  0 
 13 14  1  0  0  0  0 
 13 43  1  0  0  0  0 
 13 44  1  0  0  0  0 
 14 47  1  0  0  0  0 
 14 48  1  0  0  0  0 
 15 16  1  0  0  0  0 
 16 17  1  0  0  0  0 
 16 50  1  0  0  0  0 
 17 20  2  0  0  0  0 
 17 21  1  0  0  0  0 
 18 23  2  0  0  0  0 
 18 24  1  0  0  0  0 
 19 22  1  0  0  0  0 
 20 25  1  0  0  0  0 
 20 51  1  0  0  0  0 
 21 26  2  0  0  0  0 
 21 52  1  0  0  0  0 
 22 28  1  0  0  0  0 
 22 53  1  0  0  0  0 
 22 54  1  0  0  0  0 
 23 29  1  0  0  0  0 
 23 55  1  0  0  0  0 
 24 30  2  0  0  0  0 
 24 56  1  0  0  0  0 
 25 27  2  0  0  0  0 
 26 27  1  0  0  0  0 
 26 57  1  0  0  0  0 
 27 58  1  0  0  0  0 
 28 32  2  0  0  0  0 
 29 31  2  0  0  0  0 
 29 59  1  0  0  0  0 
 30 31  1  0  0  0  0 
 30 60  1  0  0  0  0 
 31 33  1  0  0  0  0 
 32 34  1  0  0  0  0 
 32 61  1  0  0  0  0 
 34 35  2  0  0  0  0 
 34 62  1  0  0  0  0 
 35 63  1  0  0  0  0 
 36 64  1  0  0  0  0 
 36 65  1  0  0  0  0 
 36 66  1  0  0  0  0 
 37 67  1  0  0  0  0 
 37 68  1  0  0  0  0 
 37 69  1  0  0  0  0 
M  END
> <cdk:Title>
25309802

> <cdk:Remark>
null

> <PUBCHEM_COMPOUND_CID>
25309802

> <PUBCHEM_COMPOUND_CANONICALIZED>
1

> <PUBCHEM_CACTVS_COMPLEXITY>
765

> <PUBCHEM_CACTVS_HBOND_ACCEPTOR>
6

> <PUBCHEM_CACTVS_HBOND_DONOR>
1

> <PUBCHEM_CACTVS_ROTATABLE_BOND>
10

> <PUBCHEM_CACTVS_SUBSKEYS>
AAADcfB7OABAAAAAAAAAAAAAAAAAASAAAAAwYMAAAAAAAAAB0AAAHgQQAAAADCzF2Aayz4PABAiMAiXSWACDCIAlKhBIiJmObMgMZjLktbuUMShk1hHo6Ye43bPeCAABAAAAAAAQAAIAAAAAAAAAAAAAAA==

> <PUBCHEM_IUPAC_OPENEYE_NAME>
methyl 4-[[(1R)-2-(cyclohexylamino)-1-(3-methoxyphenyl)-2-oxo-ethyl]-[2-(2-thienyl)acetyl]amino]benzoate

> <PUBCHEM_IUPAC_CAS_NAME>
4-[[(1R)-2-(cyclohexylamino)-1-(3-methoxyphenyl)-2-oxoethyl]-(1-oxo-2-thiophen-2-ylethyl)amino]benzoic acid methyl ester

> <PUBCHEM_IUPAC_NAME>
methyl 4-[[(1R)-2-(cyclohexylamino)-1-(3-methoxyphenyl)-2-oxoethyl]-(2-thiophen-2-ylacetyl)amino]benzoate

> <PUBCHEM_IUPAC_SYSTEMATIC_NAME>
methyl 4-[[(1R)-2-(cyclohexylamino)-1-(3-methoxyphenyl)-2-oxidanylidene-ethyl]-(2-thiophen-2-ylethanoyl)amino]benzoate

> <PUBCHEM_IUPAC_TRADITIONAL_NAME>
4-[[(1R)-2-(cyclohexylamino)-2-keto-1-(3-methoxyphenyl)ethyl]-[2-(2-thienyl)acetyl]amino]benzoic acid methyl ester

> <PUBCHEM_IUPAC_INCHI>
InChI=1S/C29H32N2O5S/c1-35-24-11-6-8-21(18-24)27(28(33)30-22-9-4-3-5-10-22)31(26(32)19-25-12-7-17-37-25)23-15-13-20(14-16-23)29(34)36-2/h6-8,11-18,22,27H,3-5,9-10,19H2,1-2H3,(H,30,33)/t27-/m1/s1

> <PUBCHEM_IUPAC_INCHIKEY>
UPCJBARXNHIPBV-HHHXNRCGSA-N

> <PUBCHEM_XLOGP3_AA>
5.3

> <PUBCHEM_EXACT_MASS>
520.203193

> <PUBCHEM_MOLECULAR_FORMULA>
C29H32N2O5S

> <PUBCHEM_MOLECULAR_WEIGHT>
520.63978

> <PUBCHEM_OPENEYE_CAN_SMILES>
COC1=CC=CC(=C1)C(C(=O)NC2CCCCC2)N(C3=CC=C(C=C3)C(=O)OC)C(=O)CC4=CC=CS4

> <PUBCHEM_OPENEYE_ISO_SMILES>
COC1=CC=CC(=C1)[C@H](C(=O)NC2CCCCC2)N(C3=CC=C(C=C3)C(=O)OC)C(=O)CC4=CC=CS4

> <PUBCHEM_CACTVS_TPSA>
113

> <PUBCHEM_MONOISOTOPIC_WEIGHT>
520.203193

> <PUBCHEM_TOTAL_CHARGE>
0

> <PUBCHEM_HEAVY_ATOM_COUNT>
37

> <PUBCHEM_ATOM_DEF_STEREO_COUNT>
1

> <PUBCHEM_ATOM_UDEF_STEREO_COUNT>
0

> <PUBCHEM_BOND_DEF_STEREO_COUNT>
0

> <PUBCHEM_BOND_UDEF_STEREO_COUNT>
0

> <PUBCHEM_ISOTOPIC_ATOM_COUNT>
0

> <PUBCHEM_COMPONENT_COUNT>
1

> <PUBCHEM_CACTVS_TAUTO_COUNT>
2

> <PUBCHEM_COORDINATE_TYPE>
1

> <PUBCHEM_BONDANNOTATIONS>
1  28  8

$$$$
