54068030
  CDK     1205141050

 59 61  0  0  0  0  0  0  0  0999 V2000
    3.2601    0.5901    0.0000 S   0  0  0  0  0  0  0  0  0  0  0  0
    4.8479    1.3991    0.0000 N   0  0  3  0  0  0  0  0  0  0  0  0
    3.0776    2.2626    0.0000 N   0  0  0  0  0  0  0  0  0  0  0  0
    4.5691   -0.3610    0.0000 N   0  0  0  0  0  0  0  0  0  0  0  0
    4.0344    3.2262    0.0000 N   0  0  0  0  0  0  0  0  0  0  0  0
    4.0388    1.9869    0.0000 C   0  0  0  0  0  0  0  0  0  0  0  0
    5.4356    2.2081    0.0000 C   0  0  0  0  0  0  0  0  0  0  0  0
    4.2601    0.5901    0.0000 C   0  0  0  0  0  0  0  0  0  0  0  0
    5.6569    0.8113    0.0000 C   0  0  0  0  0  0  0  0  0  0  0  0
    5.0289    3.1217    0.0000 C   0  0  0  0  0  0  0  0  0  0  0  0
    3.7601   -0.9488    0.0000 C   0  0  0  0  0  0  0  0  0  0  0  0
    2.9511   -0.3610    0.0000 C   0  0  0  0  0  0  0  0  0  0  0  0
    3.7601   -1.9488    0.0000 C   0  0  0  0  0  0  0  0  0  0  0  0
    2.8357    3.2328    0.0000 C   0  0  0  0  0  0  0  0  0  0  0  0
    2.3582    1.5678    0.0000 C   0  0  0  0  0  0  0  0  0  0  0  0
    5.6167    3.9307    0.0000 C   0  0  0  0  0  0  0  0  0  0  0  0
    4.6261   -2.4488    0.0000 C   0  0  0  0  0  0  0  0  0  0  0  0
    2.8940   -2.4488    0.0000 C   0  0  0  0  0  0  0  0  0  0  0  0
    2.0000   -0.6700    0.0000 C   0  0  0  0  0  0  0  0  0  0  0  0
    4.6261   -3.4488    0.0000 C   0  0  0  0  0  0  0  0  0  0  0  0
    2.8940   -3.4488    0.0000 C   0  0  0  0  0  0  0  0  0  0  0  0
    3.7601   -3.9488    0.0000 C   0  0  0  0  0  0  0  0  0  0  0  0
    5.2100    4.8442    0.0000 C   0  0  0  0  0  0  0  0  0  0  0  0
    5.4921   -1.9488    0.0000 C   0  0  0  0  0  0  0  0  0  0  0  0
    2.0280   -1.9488    0.0000 C   0  0  0  0  0  0  0  0  0  0  0  0
    3.6276    4.1397    0.0000 C   0  0  0  0  0  0  0  0  0  0  0  0
    4.2154    4.9488    0.0000 C   0  0  0  0  0  0  0  0  0  0  0  0
    3.7601   -4.9488    0.0000 C   0  0  0  0  0  0  0  0  0  0  0  0
    4.5721    2.3031    0.0000 H   0  0  0  0  0  0  0  0  0  0  0  0
    3.7670    1.4296    0.0000 H   0  0  0  0  0  0  0  0  0  0  0  0
    5.8663    1.7621    0.0000 H   0  0  0  0  0  0  0  0  0  0  0  0
    5.9496    2.5548    0.0000 H   0  0  0  0  0  0  0  0  0  0  0  0
    5.2924    0.3097    0.0000 H   0  0  0  0  0  0  0  0  0  0  0  0
    6.1585    0.4469    0.0000 H   0  0  0  0  0  0  0  0  0  0  0  0
    6.0213    1.3129    0.0000 H   0  0  0  0  0  0  0  0  0  0  0  0
    1.9275    2.0138    0.0000 H   0  0  0  0  0  0  0  0  0  0  0  0
    1.9123    1.1371    0.0000 H   0  0  0  0  0  0  0  0  0  0  0  0
    2.7890    1.1219    0.0000 H   0  0  0  0  0  0  0  0  0  0  0  0
    3.4372    3.3828    0.0000 H   0  0  0  0  0  0  0  0  0  0  0  0
    2.6856    3.8344    0.0000 H   0  0  0  0  0  0  0  0  0  0  0  0
    2.2341    3.0828    0.0000 H   0  0  0  0  0  0  0  0  0  0  0  0
    6.2333    3.8659    0.0000 H   0  0  0  0  0  0  0  0  0  0  0  0
    1.8084   -0.0803    0.0000 H   0  0  0  0  0  0  0  0  0  0  0  0
    1.4103   -0.8616    0.0000 H   0  0  0  0  0  0  0  0  0  0  0  0
    2.1916   -1.2596    0.0000 H   0  0  0  0  0  0  0  0  0  0  0  0
    5.1630   -3.7588    0.0000 H   0  0  0  0  0  0  0  0  0  0  0  0
    2.3571   -3.7588    0.0000 H   0  0  0  0  0  0  0  0  0  0  0  0
    5.5744    5.3458    0.0000 H   0  0  0  0  0  0  0  0  0  0  0  0
    5.8021   -2.4857    0.0000 H   0  0  0  0  0  0  0  0  0  0  0  0
    6.0291   -1.6388    0.0000 H   0  0  0  0  0  0  0  0  0  0  0  0
    5.1821   -1.4118    0.0000 H   0  0  0  0  0  0  0  0  0  0  0  0
    2.3380   -1.4118    0.0000 H   0  0  0  0  0  0  0  0  0  0  0  0
    1.4911   -1.6388    0.0000 H   0  0  0  0  0  0  0  0  0  0  0  0
    1.7180   -2.4857    0.0000 H   0  0  0  0  0  0  0  0  0  0  0  0
    3.0110    4.2046    0.0000 H   0  0  0  0  0  0  0  0  0  0  0  0
    3.9633    5.5152    0.0000 H   0  0  0  0  0  0  0  0  0  0  0  0
    3.1401   -4.9488    0.0000 H   0  0  0  0  0  0  0  0  0  0  0  0
    3.7601   -5.5688    0.0000 H   0  0  0  0  0  0  0  0  0  0  0  0
    4.3801   -4.9488    0.0000 H   0  0  0  0  0  0  0  0  0  0  0  0
  1  8  1  0  0  0  0 
  1 12  1  0  0  0  0 
  2  6  1  0  0  0  0 
  2  7  1  0  0  0  0 
  2  8  1  0  0  0  0 
  2  9  1  0  0  0  0 
  3  6  1  0  0  0  0 
  3 14  1  0  0  0  0 
  3 15  1  0  0  0  0 
  4  8  2  0  0  0  0 
  4 11  1  0  0  0  0 
  5 10  1  0  0  0  0 
  5 26  2  0  0  0  0 
  6 29  1  0  0  0  0 
  6 30  1  0  0  0  0 
  7 10  1  0  0  0  0 
  7 31  1  0  0  0  0 
  7 32  1  0  0  0  0 
  9 33  1  0  0  0  0 
  9 34  1  0  0  0  0 
  9 35  1  0  0  0  0 
 10 16  2  0  0  0  0 
 11 12  2  0  0  0  0 
 11 13  1  0  0  0  0 
 12 19  1  0  0  0  0 
 13 17  2  0  0  0  0 
 13 18  1  0  0  0  0 
 14 39  1  0  0  0  0 
 14 40  1  0  0  0  0 
 14 41  1  0  0  0  0 
 15 36  1  0  0  0  0 
 15 37  1  0  0  0  0 
 15 38  1  0  0  0  0 
 16 23  1  0  0  0  0 
 16 42  1  0  0  0  0 
 17 20  1  0  0  0  0 
 17 24  1  0  0  0  0 
 18 21  2  0  0  0  0 
 18 25  1  0  0  0  0 
 19 43  1  0  0  0  0 
 19 44  1  0  0  0  0 
 19 45  1  0  0  0  0 
 20 22  2  0  0  0  0 
 20 46  1  0  0  0  0 
 21 22  1  0  0  0  0 
 21 47  1  0  0  0  0 
 22 28  1  0  0  0  0 
 23 27  2  0  0  0  0 
 23 48  1  0  0  0  0 
 24 49  1  0  0  0  0 
 24 50  1  0  0  0  0 
 24 51  1  0  0  0  0 
 25 52  1  0  0  0  0 
 25 53  1  0  0  0  0 
 25 54  1  0  0  0  0 
 26 27  1  0  0  0  0 
 26 55  1  0  0  0  0 
 27 56  1  0  0  0  0 
 28 57  1  0  0  0  0 
 28 58  1  0  0  0  0 
 28 59  1  0  0  0  0 
M  CHG  1   2   1
M  END
> <cdk:Title>
54068030

> <cdk:Remark>
null

> <PUBCHEM_COMPOUND_CID>
54068030

> <PUBCHEM_COMPOUND_CANONICALIZED>
1

> <PUBCHEM_CACTVS_COMPLEXITY>
489

> <PUBCHEM_CACTVS_HBOND_ACCEPTOR>
4

> <PUBCHEM_CACTVS_HBOND_DONOR>
0

> <PUBCHEM_CACTVS_ROTATABLE_BOND>
6

> <PUBCHEM_CACTVS_SUBSKEYS>
AAADceB7gABAAAAAAAAAAAAAAAAAAWAAAAA8QAAAAAAAAAAB8AAAHAQAAAAADAjBXgQ/kZMIEAikAzRnZACC8KlxCjgJ2DQ4ZJiIYOLgmZGUIAhogALIyCcQgMAOwAACAAAQAACAAAQAACAAAAAAAAAAAA==

> <PUBCHEM_IUPAC_OPENEYE_NAME>
(dimethylamino)methyl-methyl-[5-methyl-4-(2,4,6-trimethylphenyl)thiazol-2-yl]-(2-pyridylmethyl)ammonium

> <PUBCHEM_IUPAC_CAS_NAME>
(dimethylamino)methyl-methyl-[5-methyl-4-(2,4,6-trimethylphenyl)-2-thiazolyl]-(2-pyridinylmethyl)ammonium

> <PUBCHEM_IUPAC_NAME>
(dimethylamino)methyl-methyl-[5-methyl-4-(2,4,6-trimethylphenyl)-1,3-thiazol-2-yl]-(pyridin-2-ylmethyl)azanium

> <PUBCHEM_IUPAC_SYSTEMATIC_NAME>
(dimethylamino)methyl-methyl-[5-methyl-4-(2,4,6-trimethylphenyl)-1,3-thiazol-2-yl]-(pyridin-2-ylmethyl)azanium

> <PUBCHEM_IUPAC_TRADITIONAL_NAME>
(dimethylamino)methyl-(4-mesityl-5-methyl-thiazol-2-yl)-methyl-(2-pyridylmethyl)ammonium

> <PUBCHEM_IUPAC_INCHI>
InChI=1S/C23H31N4S/c1-16-12-17(2)21(18(3)13-16)22-19(4)28-23(25-22)27(7,15-26(5)6)14-20-10-8-9-11-24-20/h8-13H,14-15H2,1-7H3/q+1

> <PUBCHEM_IUPAC_INCHIKEY>
YPWCJPGXKOTQQO-UHFFFAOYSA-N

> <PUBCHEM_XLOGP3_AA>
5

> <PUBCHEM_EXACT_MASS>
395.226943

> <PUBCHEM_MOLECULAR_FORMULA>
C23H31N4S+

> <PUBCHEM_MOLECULAR_WEIGHT>
395.58404

> <PUBCHEM_OPENEYE_CAN_SMILES>
CC1=CC(=C(C(=C1)C)C2=C(SC(=N2)[N+](C)(CC3=CC=CC=N3)CN(C)C)C)C

> <PUBCHEM_OPENEYE_ISO_SMILES>
CC1=CC(=C(C(=C1)C)C2=C(SC(=N2)[N+](C)(CC3=CC=CC=N3)CN(C)C)C)C

> <PUBCHEM_CACTVS_TPSA>
57.3

> <PUBCHEM_MONOISOTOPIC_WEIGHT>
395.226943

> <PUBCHEM_TOTAL_CHARGE>
1

> <PUBCHEM_HEAVY_ATOM_COUNT>
28

> <PUBCHEM_ATOM_DEF_STEREO_COUNT>
0

> <PUBCHEM_ATOM_UDEF_STEREO_COUNT>
1

> <PUBCHEM_BOND_DEF_STEREO_COUNT>
0

> <PUBCHEM_BOND_UDEF_STEREO_COUNT>
0

> <PUBCHEM_ISOTOPIC_ATOM_COUNT>
0

> <PUBCHEM_COMPONENT_COUNT>
1

> <PUBCHEM_CACTVS_TAUTO_COUNT>
1

> <PUBCHEM_COORDINATE_TYPE>
1

> <PUBCHEM_BONDANNOTATIONS>
1  12  8

$$$$
54068030
  CDK     1205141403

 59 61  0  0  0  0  0  0  0  0999 V2000
    3.2601    0.5901    0.0000 S   0  0  0  0  0  0  0  0  0  0  0  0
    4.8479    1.3991    0.0000 N   0  0  3  0  0  0  0  0  0  0  0  0
    3.0776    2.2626    0.0000 N   0  0  0  0  0  0  0  0  0  0  0  0
    4.5691   -0.3610    0.0000 N   0  0  0  0  0  0  0  0  0  0  0  0
    4.0344    3.2262    0.0000 N   0  0  0  0  0  0  0  0  0  0  0  0
    4.0388    1.9869    0.0000 C   0  0  0  0  0  0  0  0  0  0  0  0
    5.4356    2.2081    0.0000 C   0  0  0  0  0  0  0  0  0  0  0  0
    4.2601    0.5901    0.0000 C   0  0  0  0  0  0  0  0  0  0  0  0
    5.6569    0.8113    0.0000 C   0  0  0  0  0  0  0  0  0  0  0  0
    5.0289    3.1217    0.0000 C   0  0  0  0  0  0  0  0  0  0  0  0
    3.7601   -0.9488    0.0000 C   0  0  0  0  0  0  0  0  0  0  0  0
    2.9511   -0.3610    0.0000 C   0  0  0  0  0  0  0  0  0  0  0  0
    3.7601   -1.9488    0.0000 C   0  0  0  0  0  0  0  0  0  0  0  0
    2.8357    3.2328    0.0000 C   0  0  0  0  0  0  0  0  0  0  0  0
    2.3582    1.5678    0.0000 C   0  0  0  0  0  0  0  0  0  0  0  0
    5.6167    3.9307    0.0000 C   0  0  0  0  0  0  0  0  0  0  0  0
    4.6261   -2.4488    0.0000 C   0  0  0  0  0  0  0  0  0  0  0  0
    2.8940   -2.4488    0.0000 C   0  0  0  0  0  0  0  0  0  0  0  0
    2.0000   -0.6700    0.0000 C   0  0  0  0  0  0  0  0  0  0  0  0
    4.6261   -3.4488    0.0000 C   0  0  0  0  0  0  0  0  0  0  0  0
    2.8940   -3.4488    0.0000 C   0  0  0  0  0  0  0  0  0  0  0  0
    3.7601   -3.9488    0.0000 C   0  0  0  0  0  0  0  0  0  0  0  0
    5.2100    4.8442    0.0000 C   0  0  0  0  0  0  0  0  0  0  0  0
    5.4921   -1.9488    0.0000 C   0  0  0  0  0  0  0  0  0  0  0  0
    2.0280   -1.9488    0.0000 C   0  0  0  0  0  0  0  0  0  0  0  0
    3.6276    4.1397    0.0000 C   0  0  0  0  0  0  0  0  0  0  0  0
    4.2154    4.9488    0.0000 C   0  0  0  0  0  0  0  0  0  0  0  0
    3.7601   -4.9488    0.0000 C   0  0  0  0  0  0  0  0  0  0  0  0
    4.5721    2.3031    0.0000 H   0  0  0  0  0  0  0  0  0  0  0  0
    3.7670    1.4296    0.0000 H   0  0  0  0  0  0  0  0  0  0  0  0
    5.8663    1.7621    0.0000 H   0  0  0  0  0  0  0  0  0  0  0  0
    5.9496    2.5548    0.0000 H   0  0  0  0  0  0  0  0  0  0  0  0
    5.2924    0.3097    0.0000 H   0  0  0  0  0  0  0  0  0  0  0  0
    6.1585    0.4469    0.0000 H   0  0  0  0  0  0  0  0  0  0  0  0
    6.0213    1.3129    0.0000 H   0  0  0  0  0  0  0  0  0  0  0  0
    1.9275    2.0138    0.0000 H   0  0  0  0  0  0  0  0  0  0  0  0
    1.9123    1.1371    0.0000 H   0  0  0  0  0  0  0  0  0  0  0  0
    2.7890    1.1219    0.0000 H   0  0  0  0  0  0  0  0  0  0  0  0
    3.4372    3.3828    0.0000 H   0  0  0  0  0  0  0  0  0  0  0  0
    2.6856    3.8344    0.0000 H   0  0  0  0  0  0  0  0  0  0  0  0
    2.2341    3.0828    0.0000 H   0  0  0  0  0  0  0  0  0  0  0  0
    6.2333    3.8659    0.0000 H   0  0  0  0  0  0  0  0  0  0  0  0
    1.8084   -0.0803    0.0000 H   0  0  0  0  0  0  0  0  0  0  0  0
    1.4103   -0.8616    0.0000 H   0  0  0  0  0  0  0  0  0  0  0  0
    2.1916   -1.2596    0.0000 H   0  0  0  0  0  0  0  0  0  0  0  0
    5.1630   -3.7588    0.0000 H   0  0  0  0  0  0  0  0  0  0  0  0
    2.3571   -3.7588    0.0000 H   0  0  0  0  0  0  0  0  0  0  0  0
    5.5744    5.3458    0.0000 H   0  0  0  0  0  0  0  0  0  0  0  0
    5.8021   -2.4857    0.0000 H   0  0  0  0  0  0  0  0  0  0  0  0
    6.0291   -1.6388    0.0000 H   0  0  0  0  0  0  0  0  0  0  0  0
    5.1821   -1.4118    0.0000 H   0  0  0  0  0  0  0  0  0  0  0  0
    2.3380   -1.4118    0.0000 H   0  0  0  0  0  0  0  0  0  0  0  0
    1.4911   -1.6388    0.0000 H   0  0  0  0  0  0  0  0  0  0  0  0
    1.7180   -2.4857    0.0000 H   0  0  0  0  0  0  0  0  0  0  0  0
    3.0110    4.2046    0.0000 H   0  0  0  0  0  0  0  0  0  0  0  0
    3.9633    5.5152    0.0000 H   0  0  0  0  0  0  0  0  0  0  0  0
    3.1401   -4.9488    0.0000 H   0  0  0  0  0  0  0  0  0  0  0  0
    3.7601   -5.5688    0.0000 H   0  0  0  0  0  0  0  0  0  0  0  0
    4.3801   -4.9488    0.0000 H   0  0  0  0  0  0  0  0  0  0  0  0
  1  8  1  0  0  0  0 
  1 12  1  0  0  0  0 
  2  6  1  0  0  0  0 
  2  7  1  0  0  0  0 
  2  8  1  0  0  0  0 
  2  9  1  0  0  0  0 
  3  6  1  0  0  0  0 
  3 14  1  0  0  0  0 
  3 15  1  0  0  0  0 
  4  8  2  0  0  0  0 
  4 11  1  0  0  0  0 
  5 10  1  0  0  0  0 
  5 26  2  0  0  0  0 
  6 29  1  0  0  0  0 
  6 30  1  0  0  0  0 
  7 10  1  0  0  0  0 
  7 31  1  0  0  0  0 
  7 32  1  0  0  0  0 
  9 33  1  0  0  0  0 
  9 34  1  0  0  0  0 
  9 35  1  0  0  0  0 
 10 16  2  0  0  0  0 
 11 12  2  0  0  0  0 
 11 13  1  0  0  0  0 
 12 19  1  0  0  0  0 
 13 17  2  0  0  0  0 
 13 18  1  0  0  0  0 
 14 39  1  0  0  0  0 
 14 40  1  0  0  0  0 
 14 41  1  0  0  0  0 
 15 36  1  0  0  0  0 
 15 37  1  0  0  0  0 
 15 38  1  0  0  0  0 
 16 23  1  0  0  0  0 
 16 42  1  0  0  0  0 
 17 20  1  0  0  0  0 
 17 24  1  0  0  0  0 
 18 21  2  0  0  0  0 
 18 25  1  0  0  0  0 
 19 43  1  0  0  0  0 
 19 44  1  0  0  0  0 
 19 45  1  0  0  0  0 
 20 22  2  0  0  0  0 
 20 46  1  0  0  0  0 
 21 22  1  0  0  0  0 
 21 47  1  0  0  0  0 
 22 28  1  0  0  0  0 
 23 27  2  0  0  0  0 
 23 48  1  0  0  0  0 
 24 49  1  0  0  0  0 
 24 50  1  0  0  0  0 
 24 51  1  0  0  0  0 
 25 52  1  0  0  0  0 
 25 53  1  0  0  0  0 
 25 54  1  0  0  0  0 
 26 27  1  0  0  0  0 
 26 55  1  0  0  0  0 
 27 56  1  0  0  0  0 
 28 57  1  0  0  0  0 
 28 58  1  0  0  0  0 
 28 59  1  0  0  0  0 
M  CHG  1   2   1
M  END
> <cdk:Title>
54068030

> <cdk:Remark>
null

> <PUBCHEM_COMPOUND_CID>
54068030

> <PUBCHEM_COMPOUND_CANONICALIZED>
1

> <PUBCHEM_CACTVS_COMPLEXITY>
489

> <PUBCHEM_CACTVS_HBOND_ACCEPTOR>
4

> <PUBCHEM_CACTVS_HBOND_DONOR>
0

> <PUBCHEM_CACTVS_ROTATABLE_BOND>
6

> <PUBCHEM_CACTVS_SUBSKEYS>
AAADceB7gABAAAAAAAAAAAAAAAAAAWAAAAA8QAAAAAAAAAAB8AAAHAQAAAAADAjBXgQ/kZMIEAikAzRnZACC8KlxCjgJ2DQ4ZJiIYOLgmZGUIAhogALIyCcQgMAOwAACAAAQAACAAAQAACAAAAAAAAAAAA==

> <PUBCHEM_IUPAC_OPENEYE_NAME>
(dimethylamino)methyl-methyl-[5-methyl-4-(2,4,6-trimethylphenyl)thiazol-2-yl]-(2-pyridylmethyl)ammonium

> <PUBCHEM_IUPAC_CAS_NAME>
(dimethylamino)methyl-methyl-[5-methyl-4-(2,4,6-trimethylphenyl)-2-thiazolyl]-(2-pyridinylmethyl)ammonium

> <PUBCHEM_IUPAC_NAME>
(dimethylamino)methyl-methyl-[5-methyl-4-(2,4,6-trimethylphenyl)-1,3-thiazol-2-yl]-(pyridin-2-ylmethyl)azanium

> <PUBCHEM_IUPAC_SYSTEMATIC_NAME>
(dimethylamino)methyl-methyl-[5-methyl-4-(2,4,6-trimethylphenyl)-1,3-thiazol-2-yl]-(pyridin-2-ylmethyl)azanium

> <PUBCHEM_IUPAC_TRADITIONAL_NAME>
(dimethylamino)methyl-(4-mesityl-5-methyl-thiazol-2-yl)-methyl-(2-pyridylmethyl)ammonium

> <PUBCHEM_IUPAC_INCHI>
InChI=1S/C23H31N4S/c1-16-12-17(2)21(18(3)13-16)22-19(4)28-23(25-22)27(7,15-26(5)6)14-20-10-8-9-11-24-20/h8-13H,14-15H2,1-7H3/q+1

> <PUBCHEM_IUPAC_INCHIKEY>
YPWCJPGXKOTQQO-UHFFFAOYSA-N

> <PUBCHEM_XLOGP3_AA>
5

> <PUBCHEM_EXACT_MASS>
395.226943

> <PUBCHEM_MOLECULAR_FORMULA>
C23H31N4S+

> <PUBCHEM_MOLECULAR_WEIGHT>
395.58404

> <PUBCHEM_OPENEYE_CAN_SMILES>
CC1=CC(=C(C(=C1)C)C2=C(SC(=N2)[N+](C)(CC3=CC=CC=N3)CN(C)C)C)C

> <PUBCHEM_OPENEYE_ISO_SMILES>
CC1=CC(=C(C(=C1)C)C2=C(SC(=N2)[N+](C)(CC3=CC=CC=N3)CN(C)C)C)C

> <PUBCHEM_CACTVS_TPSA>
57.3

> <PUBCHEM_MONOISOTOPIC_WEIGHT>
395.226943

> <PUBCHEM_TOTAL_CHARGE>
1

> <PUBCHEM_HEAVY_ATOM_COUNT>
28

> <PUBCHEM_ATOM_DEF_STEREO_COUNT>
0

> <PUBCHEM_ATOM_UDEF_STEREO_COUNT>
1

> <PUBCHEM_BOND_DEF_STEREO_COUNT>
0

> <PUBCHEM_BOND_UDEF_STEREO_COUNT>
0

> <PUBCHEM_ISOTOPIC_ATOM_COUNT>
0

> <PUBCHEM_COMPONENT_COUNT>
1

> <PUBCHEM_CACTVS_TAUTO_COUNT>
1

> <PUBCHEM_COORDINATE_TYPE>
1

> <PUBCHEM_BONDANNOTATIONS>
1  12  8

$$$$
34408212
  CDK     1205141403

 43 45  0  0  0  0  0  0  0  0999 V2000
    3.7320    2.4268    0.0000 S   0  0  0  0  0  0  0  0  0  0  0  0
    7.4128   -3.2756    0.0000 O   0  0  0  0  0  0  0  0  0  0  0  0
    4.7320    2.4268    0.0000 O   0  0  0  0  0  0  0  0  0  0  0  0
    2.7320    2.4268    0.0000 O   0  0  0  0  0  0  0  0  0  0  0  0
    4.5981   -2.0732    0.0000 O   0  0  0  0  0  0  0  0  0  0  0  0
    5.4641   -0.5732    0.0000 N   0  0  0  0  0  0  0  0  0  0  0  0
    7.2437   -1.6664    0.0000 N   0  0  0  0  0  0  0  0  0  0  0  0
    3.7320    3.4268    0.0000 N   0  0  0  0  0  0  0  0  0  0  0  0
    3.7320    1.4268    0.0000 C   0  0  0  0  0  0  0  0  0  0  0  0
    2.8660    0.9268    0.0000 C   0  0  0  0  0  0  0  0  0  0  0  0
    4.5981   -0.0732    0.0000 C   0  0  0  0  0  0  0  0  0  0  0  0
    4.5981    0.9268    0.0000 C   0  0  0  0  0  0  0  0  0  0  0  0
    2.8660   -0.0732    0.0000 C   0  0  0  0  0  0  0  0  0  0  0  0
    3.7320   -0.5732    0.0000 C   0  0  0  0  0  0  0  0  0  0  0  0
    6.3301   -2.0732    0.0000 C   0  0  0  0  0  0  0  0  0  0  0  0
    2.0000    1.4268    0.0000 C   0  0  0  0  0  0  0  0  0  0  0  0
    5.4641   -1.5732    0.0000 C   0  0  0  0  0  0  0  0  0  0  0  0
    6.4347   -3.0677    0.0000 C   0  0  0  0  0  0  0  0  0  0  0  0
    7.9128   -2.4096    0.0000 C   0  0  0  0  0  0  0  0  0  0  0  0
    8.9073   -2.3050    0.0000 C   0  0  0  0  0  0  0  0  0  0  0  0
    5.6915   -3.7368    0.0000 C   0  0  0  0  0  0  0  0  0  0  0  0
    9.4951   -3.1141    0.0000 C   0  0  0  0  0  0  0  0  0  0  0  0
    9.3141   -1.3915    0.0000 C   0  0  0  0  0  0  0  0  0  0  0  0
   10.4896   -3.0095    0.0000 C   0  0  0  0  0  0  0  0  0  0  0  0
   10.3086   -1.2870    0.0000 C   0  0  0  0  0  0  0  0  0  0  0  0
   10.8964   -2.0960    0.0000 C   0  0  0  0  0  0  0  0  0  0  0  0
    5.1350    1.2368    0.0000 H   0  0  0  0  0  0  0  0  0  0  0  0
    2.3291   -0.3832    0.0000 H   0  0  0  0  0  0  0  0  0  0  0  0
    3.7320   -1.1932    0.0000 H   0  0  0  0  0  0  0  0  0  0  0  0
    6.0010   -0.2632    0.0000 H   0  0  0  0  0  0  0  0  0  0  0  0
    2.3100    1.9638    0.0000 H   0  0  0  0  0  0  0  0  0  0  0  0
    1.4631    1.7368    0.0000 H   0  0  0  0  0  0  0  0  0  0  0  0
    1.6900    0.8899    0.0000 H   0  0  0  0  0  0  0  0  0  0  0  0
    5.2766   -3.2761    0.0000 H   0  0  0  0  0  0  0  0  0  0  0  0
    5.2308   -4.1517    0.0000 H   0  0  0  0  0  0  0  0  0  0  0  0
    6.1064   -4.1976    0.0000 H   0  0  0  0  0  0  0  0  0  0  0  0
    4.2690    3.7368    0.0000 H   0  0  0  0  0  0  0  0  0  0  0  0
    3.1951    3.7368    0.0000 H   0  0  0  0  0  0  0  0  0  0  0  0
    9.2429   -3.6805    0.0000 H   0  0  0  0  0  0  0  0  0  0  0  0
    8.9496   -0.8899    0.0000 H   0  0  0  0  0  0  0  0  0  0  0  0
   10.8541   -3.5111    0.0000 H   0  0  0  0  0  0  0  0  0  0  0  0
   10.5608   -0.7206    0.0000 H   0  0  0  0  0  0  0  0  0  0  0  0
   11.5130   -2.0312    0.0000 H   0  0  0  0  0  0  0  0  0  0  0  0
  1  3  2  0  0  0  0 
  1  4  2  0  0  0  0 
  1  8  1  0  0  0  0 
  1  9  1  0  0  0  0 
  2 18  1  0  0  0  0 
  2 19  1  0  0  0  0 
  5 17  2  0  0  0  0 
  6 11  1  0  0  0  0 
  6 17  1  0  0  0  0 
  6 30  1  0  0  0  0 
  7 15  1  0  0  0  0 
  7 19  2  0  0  0  0 
  8 37  1  0  0  0  0 
  8 38  1  0  0  0  0 
  9 10  2  0  0  0  0 
  9 12  1  0  0  0  0 
 10 13  1  0  0  0  0 
 10 16  1  0  0  0  0 
 11 12  2  0  0  0  0 
 11 14  1  0  0  0  0 
 12 27  1  0  0  0  0 
 13 14  2  0  0  0  0 
 13 28  1  0  0  0  0 
 14 29  1  0  0  0  0 
 15 17  1  0  0  0  0 
 15 18  2  0  0  0  0 
 16 31  1  0  0  0  0 
 16 32  1  0  0  0  0 
 16 33  1  0  0  0  0 
 18 21  1  0  0  0  0 
 19 20  1  0  0  0  0 
 20 22  2  0  0  0  0 
 20 23  1  0  0  0  0 
 21 34  1  0  0  0  0 
 21 35  1  0  0  0  0 
 21 36  1  0  0  0  0 
 22 24  1  0  0  0  0 
 22 39  1  0  0  0  0 
 23 25  2  0  0  0  0 
 23 40  1  0  0  0  0 
 24 26  2  0  0  0  0 
 24 41  1  0  0  0  0 
 25 26  1  0  0  0  0 
 25 42  1  0  0  0  0 
 26 43  1  0  0  0  0 
M  END
> <cdk:Title>
34408212

> <cdk:Remark>
null

> <PUBCHEM_COMPOUND_CID>
34408212

> <PUBCHEM_COMPOUND_CANONICALIZED>
1

> <PUBCHEM_CACTVS_COMPLEXITY>
600

> <PUBCHEM_CACTVS_HBOND_ACCEPTOR>
6

> <PUBCHEM_CACTVS_HBOND_DONOR>
2

> <PUBCHEM_CACTVS_ROTATABLE_BOND>
4

> <PUBCHEM_CACTVS_SUBSKEYS>
AAADceB7OABAAAAAAAAAAAAAAAAAAWAAAAAwYAAAAAAAAAAB0AAAHgQQQAAADAyB3gAyxZLIFEKoA6VyVHTCiDAvYiAImDmlbNgOZr7MtbmfOWzm9AHY6YeYyCCOCAAAACAEAAAQAAAAQAgAAAAAAAAAAA==

> <PUBCHEM_IUPAC_OPENEYE_NAME>
5-methyl-N-(4-methyl-3-sulfamoyl-phenyl)-2-phenyl-oxazole-4-carboxamide

> <PUBCHEM_IUPAC_CAS_NAME>
5-methyl-N-(4-methyl-3-sulfamoylphenyl)-2-phenyl-4-oxazolecarboxamide

> <PUBCHEM_IUPAC_NAME>
5-methyl-N-(4-methyl-3-sulfamoylphenyl)-2-phenyl-1,3-oxazole-4-carboxamide

> <PUBCHEM_IUPAC_SYSTEMATIC_NAME>
5-methyl-N-(4-methyl-3-sulfamoyl-phenyl)-2-phenyl-1,3-oxazole-4-carboxamide

> <PUBCHEM_IUPAC_TRADITIONAL_NAME>
5-methyl-N-(4-methyl-3-sulfamoyl-phenyl)-2-phenyl-oxazole-4-carboxamide

> <PUBCHEM_IUPAC_INCHI>
InChI=1S/C18H17N3O4S/c1-11-8-9-14(10-15(11)26(19,23)24)20-17(22)16-12(2)25-18(21-16)13-6-4-3-5-7-13/h3-10H,1-2H3,(H,20,22)(H2,19,23,24)

> <PUBCHEM_IUPAC_INCHIKEY>
FWHQCJZIXZNXHZ-UHFFFAOYSA-N

> <PUBCHEM_XLOGP3_AA>
2.5

> <PUBCHEM_EXACT_MASS>
371.093977

> <PUBCHEM_MOLECULAR_FORMULA>
C18H17N3O4S

> <PUBCHEM_MOLECULAR_WEIGHT>
371.41028

> <PUBCHEM_OPENEYE_CAN_SMILES>
CC1=C(C=C(C=C1)NC(=O)C2=C(OC(=N2)C3=CC=CC=C3)C)S(=O)(=O)N

> <PUBCHEM_OPENEYE_ISO_SMILES>
CC1=C(C=C(C=C1)NC(=O)C2=C(OC(=N2)C3=CC=CC=C3)C)S(=O)(=O)N

> <PUBCHEM_CACTVS_TPSA>
124

> <PUBCHEM_MONOISOTOPIC_WEIGHT>
371.093977

> <PUBCHEM_TOTAL_CHARGE>
0

> <PUBCHEM_HEAVY_ATOM_COUNT>
26

> <PUBCHEM_ATOM_DEF_STEREO_COUNT>
0

> <PUBCHEM_ATOM_UDEF_STEREO_COUNT>
0

> <PUBCHEM_BOND_DEF_STEREO_COUNT>
0

> <PUBCHEM_BOND_UDEF_STEREO_COUNT>
0

> <PUBCHEM_ISOTOPIC_ATOM_COUNT>
0

> <PUBCHEM_COMPONENT_COUNT>
1

> <PUBCHEM_CACTVS_TAUTO_COUNT>
2

> <PUBCHEM_COORDINATE_TYPE>
1

> <PUBCHEM_BONDANNOTATIONS>
10  13  8

$$$$
54068030
  CDK     1205141403

 59 61  0  0  0  0  0  0  0  0999 V2000
    3.2601    0.5901    0.0000 S   0  0  0  0  0  0  0  0  0  0  0  0
    4.8479    1.3991    0.0000 N   0  0  3  0  0  0  0  0  0  0  0  0
    3.0776    2.2626    0.0000 N   0  0  0  0  0  0  0  0  0  0  0  0
    4.5691   -0.3610    0.0000 N   0  0  0  0  0  0  0  0  0  0  0  0
    4.0344    3.2262    0.0000 N   0  0  0  0  0  0  0  0  0  0  0  0
    4.0388    1.9869    0.0000 C   0  0  0  0  0  0  0  0  0  0  0  0
    5.4356    2.2081    0.0000 C   0  0  0  0  0  0  0  0  0  0  0  0
    4.2601    0.5901    0.0000 C   0  0  0  0  0  0  0  0  0  0  0  0
    5.6569    0.8113    0.0000 C   0  0  0  0  0  0  0  0  0  0  0  0
    5.0289    3.1217    0.0000 C   0  0  0  0  0  0  0  0  0  0  0  0
    3.7601   -0.9488    0.0000 C   0  0  0  0  0  0  0  0  0  0  0  0
    2.9511   -0.3610    0.0000 C   0  0  0  0  0  0  0  0  0  0  0  0
    3.7601   -1.9488    0.0000 C   0  0  0  0  0  0  0  0  0  0  0  0
    2.8357    3.2328    0.0000 C   0  0  0  0  0  0  0  0  0  0  0  0
    2.3582    1.5678    0.0000 C   0  0  0  0  0  0  0  0  0  0  0  0
    5.6167    3.9307    0.0000 C   0  0  0  0  0  0  0  0  0  0  0  0
    4.6261   -2.4488    0.0000 C   0  0  0  0  0  0  0  0  0  0  0  0
    2.8940   -2.4488    0.0000 C   0  0  0  0  0  0  0  0  0  0  0  0
    2.0000   -0.6700    0.0000 C   0  0  0  0  0  0  0  0  0  0  0  0
    4.6261   -3.4488    0.0000 C   0  0  0  0  0  0  0  0  0  0  0  0
    2.8940   -3.4488    0.0000 C   0  0  0  0  0  0  0  0  0  0  0  0
    3.7601   -3.9488    0.0000 C   0  0  0  0  0  0  0  0  0  0  0  0
    5.2100    4.8442    0.0000 C   0  0  0  0  0  0  0  0  0  0  0  0
    5.4921   -1.9488    0.0000 C   0  0  0  0  0  0  0  0  0  0  0  0
    2.0280   -1.9488    0.0000 C   0  0  0  0  0  0  0  0  0  0  0  0
    3.6276    4.1397    0.0000 C   0  0  0  0  0  0  0  0  0  0  0  0
    4.2154    4.9488    0.0000 C   0  0  0  0  0  0  0  0  0  0  0  0
    3.7601   -4.9488    0.0000 C   0  0  0  0  0  0  0  0  0  0  0  0
    4.5721    2.3031    0.0000 H   0  0  0  0  0  0  0  0  0  0  0  0
    3.7670    1.4296    0.0000 H   0  0  0  0  0  0  0  0  0  0  0  0
    5.8663    1.7621    0.0000 H   0  0  0  0  0  0  0  0  0  0  0  0
    5.9496    2.5548    0.0000 H   0  0  0  0  0  0  0  0  0  0  0  0
    5.2924    0.3097    0.0000 H   0  0  0  0  0  0  0  0  0  0  0  0
    6.1585    0.4469    0.0000 H   0  0  0  0  0  0  0  0  0  0  0  0
    6.0213    1.3129    0.0000 H   0  0  0  0  0  0  0  0  0  0  0  0
    1.9275    2.0138    0.0000 H   0  0  0  0  0  0  0  0  0  0  0  0
    1.9123    1.1371    0.0000 H   0  0  0  0  0  0  0  0  0  0  0  0
    2.7890    1.1219    0.0000 H   0  0  0  0  0  0  0  0  0  0  0  0
    3.4372    3.3828    0.0000 H   0  0  0  0  0  0  0  0  0  0  0  0
    2.6856    3.8344    0.0000 H   0  0  0  0  0  0  0  0  0  0  0  0
    2.2341    3.0828    0.0000 H   0  0  0  0  0  0  0  0  0  0  0  0
    6.2333    3.8659    0.0000 H   0  0  0  0  0  0  0  0  0  0  0  0
    1.8084   -0.0803    0.0000 H   0  0  0  0  0  0  0  0  0  0  0  0
    1.4103   -0.8616    0.0000 H   0  0  0  0  0  0  0  0  0  0  0  0
    2.1916   -1.2596    0.0000 H   0  0  0  0  0  0  0  0  0  0  0  0
    5.1630   -3.7588    0.0000 H   0  0  0  0  0  0  0  0  0  0  0  0
    2.3571   -3.7588    0.0000 H   0  0  0  0  0  0  0  0  0  0  0  0
    5.5744    5.3458    0.0000 H   0  0  0  0  0  0  0  0  0  0  0  0
    5.8021   -2.4857    0.0000 H   0  0  0  0  0  0  0  0  0  0  0  0
    6.0291   -1.6388    0.0000 H   0  0  0  0  0  0  0  0  0  0  0  0
    5.1821   -1.4118    0.0000 H   0  0  0  0  0  0  0  0  0  0  0  0
    2.3380   -1.4118    0.0000 H   0  0  0  0  0  0  0  0  0  0  0  0
    1.4911   -1.6388    0.0000 H   0  0  0  0  0  0  0  0  0  0  0  0
    1.7180   -2.4857    0.0000 H   0  0  0  0  0  0  0  0  0  0  0  0
    3.0110    4.2046    0.0000 H   0  0  0  0  0  0  0  0  0  0  0  0
    3.9633    5.5152    0.0000 H   0  0  0  0  0  0  0  0  0  0  0  0
    3.1401   -4.9488    0.0000 H   0  0  0  0  0  0  0  0  0  0  0  0
    3.7601   -5.5688    0.0000 H   0  0  0  0  0  0  0  0  0  0  0  0
    4.3801   -4.9488    0.0000 H   0  0  0  0  0  0  0  0  0  0  0  0
  1  8  1  0  0  0  0 
  1 12  1  0  0  0  0 
  2  6  1  0  0  0  0 
  2  7  1  0  0  0  0 
  2  8  1  0  0  0  0 
  2  9  1  0  0  0  0 
  3  6  1  0  0  0  0 
  3 14  1  0  0  0  0 
  3 15  1  0  0  0  0 
  4  8  2  0  0  0  0 
  4 11  1  0  0  0  0 
  5 10  1  0  0  0  0 
  5 26  2  0  0  0  0 
  6 29  1  0  0  0  0 
  6 30  1  0  0  0  0 
  7 10  1  0  0  0  0 
  7 31  1  0  0  0  0 
  7 32  1  0  0  0  0 
  9 33  1  0  0  0  0 
  9 34  1  0  0  0  0 
  9 35  1  0  0  0  0 
 10 16  2  0  0  0  0 
 11 12  2  0  0  0  0 
 11 13  1  0  0  0  0 
 12 19  1  0  0  0  0 
 13 17  2  0  0  0  0 
 13 18  1  0  0  0  0 
 14 39  1  0  0  0  0 
 14 40  1  0  0  0  0 
 14 41  1  0  0  0  0 
 15 36  1  0  0  0  0 
 15 37  1  0  0  0  0 
 15 38  1  0  0  0  0 
 16 23  1  0  0  0  0 
 16 42  1  0  0  0  0 
 17 20  1  0  0  0  0 
 17 24  1  0  0  0  0 
 18 21  2  0  0  0  0 
 18 25  1  0  0  0  0 
 19 43  1  0  0  0  0 
 19 44  1  0  0  0  0 
 19 45  1  0  0  0  0 
 20 22  2  0  0  0  0 
 20 46  1  0  0  0  0 
 21 22  1  0  0  0  0 
 21 47  1  0  0  0  0 
 22 28  1  0  0  0  0 
 23 27  2  0  0  0  0 
 23 48  1  0  0  0  0 
 24 49  1  0  0  0  0 
 24 50  1  0  0  0  0 
 24 51  1  0  0  0  0 
 25 52  1  0  0  0  0 
 25 53  1  0  0  0  0 
 25 54  1  0  0  0  0 
 26 27  1  0  0  0  0 
 26 55  1  0  0  0  0 
 27 56  1  0  0  0  0 
 28 57  1  0  0  0  0 
 28 58  1  0  0  0  0 
 28 59  1  0  0  0  0 
M  CHG  1   2   1
M  END
> <cdk:Title>
54068030

> <cdk:Remark>
null

> <PUBCHEM_COMPOUND_CID>
54068030

> <PUBCHEM_COMPOUND_CANONICALIZED>
1

> <PUBCHEM_CACTVS_COMPLEXITY>
489

> <PUBCHEM_CACTVS_HBOND_ACCEPTOR>
4

> <PUBCHEM_CACTVS_HBOND_DONOR>
0

> <PUBCHEM_CACTVS_ROTATABLE_BOND>
6

> <PUBCHEM_CACTVS_SUBSKEYS>
AAADceB7gABAAAAAAAAAAAAAAAAAAWAAAAA8QAAAAAAAAAAB8AAAHAQAAAAADAjBXgQ/kZMIEAikAzRnZACC8KlxCjgJ2DQ4ZJiIYOLgmZGUIAhogALIyCcQgMAOwAACAAAQAACAAAQAACAAAAAAAAAAAA==

> <PUBCHEM_IUPAC_OPENEYE_NAME>
(dimethylamino)methyl-methyl-[5-methyl-4-(2,4,6-trimethylphenyl)thiazol-2-yl]-(2-pyridylmethyl)ammonium

> <PUBCHEM_IUPAC_CAS_NAME>
(dimethylamino)methyl-methyl-[5-methyl-4-(2,4,6-trimethylphenyl)-2-thiazolyl]-(2-pyridinylmethyl)ammonium

> <PUBCHEM_IUPAC_NAME>
(dimethylamino)methyl-methyl-[5-methyl-4-(2,4,6-trimethylphenyl)-1,3-thiazol-2-yl]-(pyridin-2-ylmethyl)azanium

> <PUBCHEM_IUPAC_SYSTEMATIC_NAME>
(dimethylamino)methyl-methyl-[5-methyl-4-(2,4,6-trimethylphenyl)-1,3-thiazol-2-yl]-(pyridin-2-ylmethyl)azanium

> <PUBCHEM_IUPAC_TRADITIONAL_NAME>
(dimethylamino)methyl-(4-mesityl-5-methyl-thiazol-2-yl)-methyl-(2-pyridylmethyl)ammonium

> <PUBCHEM_IUPAC_INCHI>
InChI=1S/C23H31N4S/c1-16-12-17(2)21(18(3)13-16)22-19(4)28-23(25-22)27(7,15-26(5)6)14-20-10-8-9-11-24-20/h8-13H,14-15H2,1-7H3/q+1

> <PUBCHEM_IUPAC_INCHIKEY>
YPWCJPGXKOTQQO-UHFFFAOYSA-N

> <PUBCHEM_XLOGP3_AA>
5

> <PUBCHEM_EXACT_MASS>
395.226943

> <PUBCHEM_MOLECULAR_FORMULA>
C23H31N4S+

> <PUBCHEM_MOLECULAR_WEIGHT>
395.58404

> <PUBCHEM_OPENEYE_CAN_SMILES>
CC1=CC(=C(C(=C1)C)C2=C(SC(=N2)[N+](C)(CC3=CC=CC=N3)CN(C)C)C)C

> <PUBCHEM_OPENEYE_ISO_SMILES>
CC1=CC(=C(C(=C1)C)C2=C(SC(=N2)[N+](C)(CC3=CC=CC=N3)CN(C)C)C)C

> <PUBCHEM_CACTVS_TPSA>
57.3

> <PUBCHEM_MONOISOTOPIC_WEIGHT>
395.226943

> <PUBCHEM_TOTAL_CHARGE>
1

> <PUBCHEM_HEAVY_ATOM_COUNT>
28

> <PUBCHEM_ATOM_DEF_STEREO_COUNT>
0

> <PUBCHEM_ATOM_UDEF_STEREO_COUNT>
1

> <PUBCHEM_BOND_DEF_STEREO_COUNT>
0

> <PUBCHEM_BOND_UDEF_STEREO_COUNT>
0

> <PUBCHEM_ISOTOPIC_ATOM_COUNT>
0

> <PUBCHEM_COMPONENT_COUNT>
1

> <PUBCHEM_CACTVS_TAUTO_COUNT>
1

> <PUBCHEM_COORDINATE_TYPE>
1

> <PUBCHEM_BONDANNOTATIONS>
1  12  8

$$$$
