58956276
  CDK     1205141050

 44 47  0  0  0  0  0  0  0  0999 V2000
    6.3301    2.0000    0.0000 N   0  0  0  0  0  0  0  0  0  0  0  0
    5.4641    0.5000    0.0000 N   0  0  0  0  0  0  0  0  0  0  0  0
    4.5981   -1.0000    0.0000 N   0  0  0  0  0  0  0  0  0  0  0  0
    3.7320    0.5000    0.0000 N   0  0  0  0  0  0  0  0  0  0  0  0
   10.4580    1.0000    0.0000 C   0  0  0  0  0  0  0  0  0  0  0  0
    9.8744    1.8047    0.0000 C   0  0  0  0  0  0  0  0  0  0  0  0
    9.8744    0.1953    0.0000 C   0  0  0  0  0  0  0  0  0  0  0  0
    8.9282    1.5000    0.0000 C   0  0  0  0  0  0  0  0  0  0  0  0
    8.9282    0.5000    0.0000 C   0  0  0  0  0  0  0  0  0  0  0  0
    8.0622    2.0000    0.0000 C   0  0  0  0  0  0  0  0  0  0  0  0
    8.0622    0.0000    0.0000 C   0  0  0  0  0  0  0  0  0  0  0  0
    7.1962    1.5000    0.0000 C   0  0  0  0  0  0  0  0  0  0  0  0
    7.1962    0.5000    0.0000 C   0  0  0  0  0  0  0  0  0  0  0  0
    5.4641    1.5000    0.0000 C   0  0  0  0  0  0  0  0  0  0  0  0
    4.5981    2.0000    0.0000 C   0  0  0  0  0  0  0  0  0  0  0  0
    4.5981    0.0000    0.0000 C   0  0  0  0  0  0  0  0  0  0  0  0
    3.7320    1.5000    0.0000 C   0  0  0  0  0  0  0  0  0  0  0  0
    4.5981    3.0000    0.0000 C   0  0  0  0  0  0  0  0  0  0  0  0
    3.7320   -1.5000    0.0000 C   0  0  0  0  0  0  0  0  0  0  0  0
    3.7320   -2.5000    0.0000 C   0  0  0  0  0  0  0  0  0  0  0  0
    2.8660   -1.0000    0.0000 C   0  0  0  0  0  0  0  0  0  0  0  0
    2.8660   -3.0000    0.0000 C   0  0  0  0  0  0  0  0  0  0  0  0
    2.0000   -1.5000    0.0000 C   0  0  0  0  0  0  0  0  0  0  0  0
    2.0000   -2.5000    0.0000 C   0  0  0  0  0  0  0  0  0  0  0  0
   10.9189    0.5853    0.0000 H   0  0  0  0  0  0  0  0  0  0  0  0
   10.9189    1.4147    0.0000 H   0  0  0  0  0  0  0  0  0  0  0  0
   10.4118    2.1140    0.0000 H   0  0  0  0  0  0  0  0  0  0  0  0
    9.6234    2.3716    0.0000 H   0  0  0  0  0  0  0  0  0  0  0  0
    9.6234   -0.3716    0.0000 H   0  0  0  0  0  0  0  0  0  0  0  0
   10.4118   -0.1140    0.0000 H   0  0  0  0  0  0  0  0  0  0  0  0
    8.0622    2.6200    0.0000 H   0  0  0  0  0  0  0  0  0  0  0  0
    8.0622   -0.6200    0.0000 H   0  0  0  0  0  0  0  0  0  0  0  0
    6.6592    0.1900    0.0000 H   0  0  0  0  0  0  0  0  0  0  0  0
    6.3301    2.6200    0.0000 H   0  0  0  0  0  0  0  0  0  0  0  0
    3.1951    1.8100    0.0000 H   0  0  0  0  0  0  0  0  0  0  0  0
    5.2181    3.0000    0.0000 H   0  0  0  0  0  0  0  0  0  0  0  0
    4.5981    3.6200    0.0000 H   0  0  0  0  0  0  0  0  0  0  0  0
    3.9781    3.0000    0.0000 H   0  0  0  0  0  0  0  0  0  0  0  0
    5.1350   -1.3100    0.0000 H   0  0  0  0  0  0  0  0  0  0  0  0
    4.2690   -2.8100    0.0000 H   0  0  0  0  0  0  0  0  0  0  0  0
    2.8660   -0.3800    0.0000 H   0  0  0  0  0  0  0  0  0  0  0  0
    2.8660   -3.6200    0.0000 H   0  0  0  0  0  0  0  0  0  0  0  0
    1.4631   -1.1900    0.0000 H   0  0  0  0  0  0  0  0  0  0  0  0
    1.4631   -2.8100    0.0000 H   0  0  0  0  0  0  0  0  0  0  0  0
  1 12  1  0  0  0  0 
  1 14  1  0  0  0  0 
  1 34  1  0  0  0  0 
  2 14  2  0  0  0  0 
  2 16  1  0  0  0  0 
  3 16  1  0  0  0  0 
  3 19  1  0  0  0  0 
  3 39  1  0  0  0  0 
  4 16  2  0  0  0  0 
  4 17  1  0  0  0  0 
  5  6  1  0  0  0  0 
  5  7  1  0  0  0  0 
  5 25  1  0  0  0  0 
  5 26  1  0  0  0  0 
  6  8  1  0  0  0  0 
  6 27  1  0  0  0  0 
  6 28  1  0  0  0  0 
  7  9  1  0  0  0  0 
  7 29  1  0  0  0  0 
  7 30  1  0  0  0  0 
  8  9  2  0  0  0  0 
  8 10  1  0  0  0  0 
  9 11  1  0  0  0  0 
 10 12  2  0  0  0  0 
 10 31  1  0  0  0  0 
 11 13  2  0  0  0  0 
 11 32  1  0  0  0  0 
 12 13  1  0  0  0  0 
 13 33  1  0  0  0  0 
 14 15  1  0  0  0  0 
 15 17  2  0  0  0  0 
 15 18  1  0  0  0  0 
 17 35  1  0  0  0  0 
 18 36  1  0  0  0  0 
 18 37  1  0  0  0  0 
 18 38  1  0  0  0  0 
 19 20  2  0  0  0  0 
 19 21  1  0  0  0  0 
 20 22  1  0  0  0  0 
 20 40  1  0  0  0  0 
 21 23  2  0  0  0  0 
 21 41  1  0  0  0  0 
 22 24  2  0  0  0  0 
 22 42  1  0  0  0  0 
 23 24  1  0  0  0  0 
 23 43  1  0  0  0  0 
 24 44  1  0  0  0  0 
M  END
> <cdk:Title>
58956276

> <cdk:Remark>
null

> <PUBCHEM_COMPOUND_CID>
58956276

> <PUBCHEM_COMPOUND_CANONICALIZED>
1

> <PUBCHEM_CACTVS_COMPLEXITY>
395

> <PUBCHEM_CACTVS_HBOND_ACCEPTOR>
4

> <PUBCHEM_CACTVS_HBOND_DONOR>
2

> <PUBCHEM_CACTVS_ROTATABLE_BOND>
4

> <PUBCHEM_CACTVS_SUBSKEYS>
AAADceB7gAAAAAAAAAAAAAAAAAAAAYAAAAA8YIAAAAAAAGAB0AAAHAAQAAAADAjBGgQ/8JbIEACgAjZnZACCgCkxAqAJ2CAoZJiIKOLA2dGEJAhokALIyCcQgIAOiAAAQAAQAAAQAACAACAAAAAACAAAAA==

> <PUBCHEM_IUPAC_OPENEYE_NAME>
N4-indan-5-yl-5-methyl-N2-phenyl-pyrimidine-2,4-diamine

> <PUBCHEM_IUPAC_CAS_NAME>
N4-(2,3-dihydro-1H-inden-5-yl)-5-methyl-N2-phenylpyrimidine-2,4-diamine

> <PUBCHEM_IUPAC_NAME>
4-N-(2,3-dihydro-1H-inden-5-yl)-5-methyl-2-N-phenylpyrimidine-2,4-diamine

> <PUBCHEM_IUPAC_SYSTEMATIC_NAME>
N4-(2,3-dihydro-1H-inden-5-yl)-5-methyl-N2-phenyl-pyrimidine-2,4-diamine

> <PUBCHEM_IUPAC_TRADITIONAL_NAME>
(2-anilino-5-methyl-pyrimidin-4-yl)-indan-5-yl-amine

> <PUBCHEM_IUPAC_INCHI>
InChI=1S/C20H20N4/c1-14-13-21-20(23-17-8-3-2-4-9-17)24-19(14)22-18-11-10-15-6-5-7-16(15)12-18/h2-4,8-13H,5-7H2,1H3,(H2,21,22,23,24)

> <PUBCHEM_IUPAC_INCHIKEY>
GZTHGDAVBNMJIU-UHFFFAOYSA-N

> <PUBCHEM_XLOGP3_AA>
5.2

> <PUBCHEM_EXACT_MASS>
316.168797

> <PUBCHEM_MOLECULAR_FORMULA>
C20H20N4

> <PUBCHEM_MOLECULAR_WEIGHT>
316.3996

> <PUBCHEM_OPENEYE_CAN_SMILES>
CC1=CN=C(N=C1NC2=CC3=C(CCC3)C=C2)NC4=CC=CC=C4

> <PUBCHEM_OPENEYE_ISO_SMILES>
CC1=CN=C(N=C1NC2=CC3=C(CCC3)C=C2)NC4=CC=CC=C4

> <PUBCHEM_CACTVS_TPSA>
49.8

> <PUBCHEM_MONOISOTOPIC_WEIGHT>
316.168797

> <PUBCHEM_TOTAL_CHARGE>
0

> <PUBCHEM_HEAVY_ATOM_COUNT>
24

> <PUBCHEM_ATOM_DEF_STEREO_COUNT>
0

> <PUBCHEM_ATOM_UDEF_STEREO_COUNT>
0

> <PUBCHEM_BOND_DEF_STEREO_COUNT>
0

> <PUBCHEM_BOND_UDEF_STEREO_COUNT>
0

> <PUBCHEM_ISOTOPIC_ATOM_COUNT>
0

> <PUBCHEM_COMPONENT_COUNT>
1

> <PUBCHEM_CACTVS_TAUTO_COUNT>
9

> <PUBCHEM_COORDINATE_TYPE>
1

> <PUBCHEM_BONDANNOTATIONS>
10  12  8

$$$$
58956276
  CDK     1205141403

 44 47  0  0  0  0  0  0  0  0999 V2000
    6.3301    2.0000    0.0000 N   0  0  0  0  0  0  0  0  0  0  0  0
    5.4641    0.5000    0.0000 N   0  0  0  0  0  0  0  0  0  0  0  0
    4.5981   -1.0000    0.0000 N   0  0  0  0  0  0  0  0  0  0  0  0
    3.7320    0.5000    0.0000 N   0  0  0  0  0  0  0  0  0  0  0  0
   10.4580    1.0000    0.0000 C   0  0  0  0  0  0  0  0  0  0  0  0
    9.8744    1.8047    0.0000 C   0  0  0  0  0  0  0  0  0  0  0  0
    9.8744    0.1953    0.0000 C   0  0  0  0  0  0  0  0  0  0  0  0
    8.9282    1.5000    0.0000 C   0  0  0  0  0  0  0  0  0  0  0  0
    8.9282    0.5000    0.0000 C   0  0  0  0  0  0  0  0  0  0  0  0
    8.0622    2.0000    0.0000 C   0  0  0  0  0  0  0  0  0  0  0  0
    8.0622    0.0000    0.0000 C   0  0  0  0  0  0  0  0  0  0  0  0
    7.1962    1.5000    0.0000 C   0  0  0  0  0  0  0  0  0  0  0  0
    7.1962    0.5000    0.0000 C   0  0  0  0  0  0  0  0  0  0  0  0
    5.4641    1.5000    0.0000 C   0  0  0  0  0  0  0  0  0  0  0  0
    4.5981    2.0000    0.0000 C   0  0  0  0  0  0  0  0  0  0  0  0
    4.5981    0.0000    0.0000 C   0  0  0  0  0  0  0  0  0  0  0  0
    3.7320    1.5000    0.0000 C   0  0  0  0  0  0  0  0  0  0  0  0
    4.5981    3.0000    0.0000 C   0  0  0  0  0  0  0  0  0  0  0  0
    3.7320   -1.5000    0.0000 C   0  0  0  0  0  0  0  0  0  0  0  0
    3.7320   -2.5000    0.0000 C   0  0  0  0  0  0  0  0  0  0  0  0
    2.8660   -1.0000    0.0000 C   0  0  0  0  0  0  0  0  0  0  0  0
    2.8660   -3.0000    0.0000 C   0  0  0  0  0  0  0  0  0  0  0  0
    2.0000   -1.5000    0.0000 C   0  0  0  0  0  0  0  0  0  0  0  0
    2.0000   -2.5000    0.0000 C   0  0  0  0  0  0  0  0  0  0  0  0
   10.9189    0.5853    0.0000 H   0  0  0  0  0  0  0  0  0  0  0  0
   10.9189    1.4147    0.0000 H   0  0  0  0  0  0  0  0  0  0  0  0
   10.4118    2.1140    0.0000 H   0  0  0  0  0  0  0  0  0  0  0  0
    9.6234    2.3716    0.0000 H   0  0  0  0  0  0  0  0  0  0  0  0
    9.6234   -0.3716    0.0000 H   0  0  0  0  0  0  0  0  0  0  0  0
   10.4118   -0.1140    0.0000 H   0  0  0  0  0  0  0  0  0  0  0  0
    8.0622    2.6200    0.0000 H   0  0  0  0  0  0  0  0  0  0  0  0
    8.0622   -0.6200    0.0000 H   0  0  0  0  0  0  0  0  0  0  0  0
    6.6592    0.1900    0.0000 H   0  0  0  0  0  0  0  0  0  0  0  0
    6.3301    2.6200    0.0000 H   0  0  0  0  0  0  0  0  0  0  0  0
    3.1951    1.8100    0.0000 H   0  0  0  0  0  0  0  0  0  0  0  0
    5.2181    3.0000    0.0000 H   0  0  0  0  0  0  0  0  0  0  0  0
    4.5981    3.6200    0.0000 H   0  0  0  0  0  0  0  0  0  0  0  0
    3.9781    3.0000    0.0000 H   0  0  0  0  0  0  0  0  0  0  0  0
    5.1350   -1.3100    0.0000 H   0  0  0  0  0  0  0  0  0  0  0  0
    4.2690   -2.8100    0.0000 H   0  0  0  0  0  0  0  0  0  0  0  0
    2.8660   -0.3800    0.0000 H   0  0  0  0  0  0  0  0  0  0  0  0
    2.8660   -3.6200    0.0000 H   0  0  0  0  0  0  0  0  0  0  0  0
    1.4631   -1.1900    0.0000 H   0  0  0  0  0  0  0  0  0  0  0  0
    1.4631   -2.8100    0.0000 H   0  0  0  0  0  0  0  0  0  0  0  0
  1 12  1  0  0  0  0 
  1 14  1  0  0  0  0 
  1 34  1  0  0  0  0 
  2 14  2  0  0  0  0 
  2 16  1  0  0  0  0 
  3 16  1  0  0  0  0 
  3 19  1  0  0  0  0 
  3 39  1  0  0  0  0 
  4 16  2  0  0  0  0 
  4 17  1  0  0  0  0 
  5  6  1  0  0  0  0 
  5  7  1  0  0  0  0 
  5 25  1  0  0  0  0 
  5 26  1  0  0  0  0 
  6  8  1  0  0  0  0 
  6 27  1  0  0  0  0 
  6 28  1  0  0  0  0 
  7  9  1  0  0  0  0 
  7 29  1  0  0  0  0 
  7 30  1  0  0  0  0 
  8  9  2  0  0  0  0 
  8 10  1  0  0  0  0 
  9 11  1  0  0  0  0 
 10 12  2  0  0  0  0 
 10 31  1  0  0  0  0 
 11 13  2  0  0  0  0 
 11 32  1  0  0  0  0 
 12 13  1  0  0  0  0 
 13 33  1  0  0  0  0 
 14 15  1  0  0  0  0 
 15 17  2  0  0  0  0 
 15 18  1  0  0  0  0 
 17 35  1  0  0  0  0 
 18 36  1  0  0  0  0 
 18 37  1  0  0  0  0 
 18 38  1  0  0  0  0 
 19 20  2  0  0  0  0 
 19 21  1  0  0  0  0 
 20 22  1  0  0  0  0 
 20 40  1  0  0  0  0 
 21 23  2  0  0  0  0 
 21 41  1  0  0  0  0 
 22 24  2  0  0  0  0 
 22 42  1  0  0  0  0 
 23 24  1  0  0  0  0 
 23 43  1  0  0  0  0 
 24 44  1  0  0  0  0 
M  END
> <cdk:Title>
58956276

> <cdk:Remark>
null

> <PUBCHEM_COMPOUND_CID>
58956276

> <PUBCHEM_COMPOUND_CANONICALIZED>
1

> <PUBCHEM_CACTVS_COMPLEXITY>
395

> <PUBCHEM_CACTVS_HBOND_ACCEPTOR>
4

> <PUBCHEM_CACTVS_HBOND_DONOR>
2

> <PUBCHEM_CACTVS_ROTATABLE_BOND>
4

> <PUBCHEM_CACTVS_SUBSKEYS>
AAADceB7gAAAAAAAAAAAAAAAAAAAAYAAAAA8YIAAAAAAAGAB0AAAHAAQAAAADAjBGgQ/8JbIEACgAjZnZACCgCkxAqAJ2CAoZJiIKOLA2dGEJAhokALIyCcQgIAOiAAAQAAQAAAQAACAACAAAAAACAAAAA==

> <PUBCHEM_IUPAC_OPENEYE_NAME>
N4-indan-5-yl-5-methyl-N2-phenyl-pyrimidine-2,4-diamine

> <PUBCHEM_IUPAC_CAS_NAME>
N4-(2,3-dihydro-1H-inden-5-yl)-5-methyl-N2-phenylpyrimidine-2,4-diamine

> <PUBCHEM_IUPAC_NAME>
4-N-(2,3-dihydro-1H-inden-5-yl)-5-methyl-2-N-phenylpyrimidine-2,4-diamine

> <PUBCHEM_IUPAC_SYSTEMATIC_NAME>
N4-(2,3-dihydro-1H-inden-5-yl)-5-methyl-N2-phenyl-pyrimidine-2,4-diamine

> <PUBCHEM_IUPAC_TRADITIONAL_NAME>
(2-anilino-5-methyl-pyrimidin-4-yl)-indan-5-yl-amine

> <PUBCHEM_IUPAC_INCHI>
InChI=1S/C20H20N4/c1-14-13-21-20(23-17-8-3-2-4-9-17)24-19(14)22-18-11-10-15-6-5-7-16(15)12-18/h2-4,8-13H,5-7H2,1H3,(H2,21,22,23,24)

> <PUBCHEM_IUPAC_INCHIKEY>
GZTHGDAVBNMJIU-UHFFFAOYSA-N

> <PUBCHEM_XLOGP3_AA>
5.2

> <PUBCHEM_EXACT_MASS>
316.168797

> <PUBCHEM_MOLECULAR_FORMULA>
C20H20N4

> <PUBCHEM_MOLECULAR_WEIGHT>
316.3996

> <PUBCHEM_OPENEYE_CAN_SMILES>
CC1=CN=C(N=C1NC2=CC3=C(CCC3)C=C2)NC4=CC=CC=C4

> <PUBCHEM_OPENEYE_ISO_SMILES>
CC1=CN=C(N=C1NC2=CC3=C(CCC3)C=C2)NC4=CC=CC=C4

> <PUBCHEM_CACTVS_TPSA>
49.8

> <PUBCHEM_MONOISOTOPIC_WEIGHT>
316.168797

> <PUBCHEM_TOTAL_CHARGE>
0

> <PUBCHEM_HEAVY_ATOM_COUNT>
24

> <PUBCHEM_ATOM_DEF_STEREO_COUNT>
0

> <PUBCHEM_ATOM_UDEF_STEREO_COUNT>
0

> <PUBCHEM_BOND_DEF_STEREO_COUNT>
0

> <PUBCHEM_BOND_UDEF_STEREO_COUNT>
0

> <PUBCHEM_ISOTOPIC_ATOM_COUNT>
0

> <PUBCHEM_COMPONENT_COUNT>
1

> <PUBCHEM_CACTVS_TAUTO_COUNT>
9

> <PUBCHEM_COORDINATE_TYPE>
1

> <PUBCHEM_BONDANNOTATIONS>
10  12  8

$$$$
58956276
  CDK     1205141403

 44 47  0  0  0  0  0  0  0  0999 V2000
    6.3301    2.0000    0.0000 N   0  0  0  0  0  0  0  0  0  0  0  0
    5.4641    0.5000    0.0000 N   0  0  0  0  0  0  0  0  0  0  0  0
    4.5981   -1.0000    0.0000 N   0  0  0  0  0  0  0  0  0  0  0  0
    3.7320    0.5000    0.0000 N   0  0  0  0  0  0  0  0  0  0  0  0
   10.4580    1.0000    0.0000 C   0  0  0  0  0  0  0  0  0  0  0  0
    9.8744    1.8047    0.0000 C   0  0  0  0  0  0  0  0  0  0  0  0
    9.8744    0.1953    0.0000 C   0  0  0  0  0  0  0  0  0  0  0  0
    8.9282    1.5000    0.0000 C   0  0  0  0  0  0  0  0  0  0  0  0
    8.9282    0.5000    0.0000 C   0  0  0  0  0  0  0  0  0  0  0  0
    8.0622    2.0000    0.0000 C   0  0  0  0  0  0  0  0  0  0  0  0
    8.0622    0.0000    0.0000 C   0  0  0  0  0  0  0  0  0  0  0  0
    7.1962    1.5000    0.0000 C   0  0  0  0  0  0  0  0  0  0  0  0
    7.1962    0.5000    0.0000 C   0  0  0  0  0  0  0  0  0  0  0  0
    5.4641    1.5000    0.0000 C   0  0  0  0  0  0  0  0  0  0  0  0
    4.5981    2.0000    0.0000 C   0  0  0  0  0  0  0  0  0  0  0  0
    4.5981    0.0000    0.0000 C   0  0  0  0  0  0  0  0  0  0  0  0
    3.7320    1.5000    0.0000 C   0  0  0  0  0  0  0  0  0  0  0  0
    4.5981    3.0000    0.0000 C   0  0  0  0  0  0  0  0  0  0  0  0
    3.7320   -1.5000    0.0000 C   0  0  0  0  0  0  0  0  0  0  0  0
    3.7320   -2.5000    0.0000 C   0  0  0  0  0  0  0  0  0  0  0  0
    2.8660   -1.0000    0.0000 C   0  0  0  0  0  0  0  0  0  0  0  0
    2.8660   -3.0000    0.0000 C   0  0  0  0  0  0  0  0  0  0  0  0
    2.0000   -1.5000    0.0000 C   0  0  0  0  0  0  0  0  0  0  0  0
    2.0000   -2.5000    0.0000 C   0  0  0  0  0  0  0  0  0  0  0  0
   10.9189    0.5853    0.0000 H   0  0  0  0  0  0  0  0  0  0  0  0
   10.9189    1.4147    0.0000 H   0  0  0  0  0  0  0  0  0  0  0  0
   10.4118    2.1140    0.0000 H   0  0  0  0  0  0  0  0  0  0  0  0
    9.6234    2.3716    0.0000 H   0  0  0  0  0  0  0  0  0  0  0  0
    9.6234   -0.3716    0.0000 H   0  0  0  0  0  0  0  0  0  0  0  0
   10.4118   -0.1140    0.0000 H   0  0  0  0  0  0  0  0  0  0  0  0
    8.0622    2.6200    0.0000 H   0  0  0  0  0  0  0  0  0  0  0  0
    8.0622   -0.6200    0.0000 H   0  0  0  0  0  0  0  0  0  0  0  0
    6.6592    0.1900    0.0000 H   0  0  0  0  0  0  0  0  0  0  0  0
    6.3301    2.6200    0.0000 H   0  0  0  0  0  0  0  0  0  0  0  0
    3.1951    1.8100    0.0000 H   0  0  0  0  0  0  0  0  0  0  0  0
    5.2181    3.0000    0.0000 H   0  0  0  0  0  0  0  0  0  0  0  0
    4.5981    3.6200    0.0000 H   0  0  0  0  0  0  0  0  0  0  0  0
    3.9781    3.0000    0.0000 H   0  0  0  0  0  0  0  0  0  0  0  0
    5.1350   -1.3100    0.0000 H   0  0  0  0  0  0  0  0  0  0  0  0
    4.2690   -2.8100    0.0000 H   0  0  0  0  0  0  0  0  0  0  0  0
    2.8660   -0.3800    0.0000 H   0  0  0  0  0  0  0  0  0  0  0  0
    2.8660   -3.6200    0.0000 H   0  0  0  0  0  0  0  0  0  0  0  0
    1.4631   -1.1900    0.0000 H   0  0  0  0  0  0  0  0  0  0  0  0
    1.4631   -2.8100    0.0000 H   0  0  0  0  0  0  0  0  0  0  0  0
  1 12  1  0  0  0  0 
  1 14  1  0  0  0  0 
  1 34  1  0  0  0  0 
  2 14  2  0  0  0  0 
  2 16  1  0  0  0  0 
  3 16  1  0  0  0  0 
  3 19  1  0  0  0  0 
  3 39  1  0  0  0  0 
  4 16  2  0  0  0  0 
  4 17  1  0  0  0  0 
  5  6  1  0  0  0  0 
  5  7  1  0  0  0  0 
  5 25  1  0  0  0  0 
  5 26  1  0  0  0  0 
  6  8  1  0  0  0  0 
  6 27  1  0  0  0  0 
  6 28  1  0  0  0  0 
  7  9  1  0  0  0  0 
  7 29  1  0  0  0  0 
  7 30  1  0  0  0  0 
  8  9  2  0  0  0  0 
  8 10  1  0  0  0  0 
  9 11  1  0  0  0  0 
 10 12  2  0  0  0  0 
 10 31  1  0  0  0  0 
 11 13  2  0  0  0  0 
 11 32  1  0  0  0  0 
 12 13  1  0  0  0  0 
 13 33  1  0  0  0  0 
 14 15  1  0  0  0  0 
 15 17  2  0  0  0  0 
 15 18  1  0  0  0  0 
 17 35  1  0  0  0  0 
 18 36  1  0  0  0  0 
 18 37  1  0  0  0  0 
 18 38  1  0  0  0  0 
 19 20  2  0  0  0  0 
 19 21  1  0  0  0  0 
 20 22  1  0  0  0  0 
 20 40  1  0  0  0  0 
 21 23  2  0  0  0  0 
 21 41  1  0  0  0  0 
 22 24  2  0  0  0  0 
 22 42  1  0  0  0  0 
 23 24  1  0  0  0  0 
 23 43  1  0  0  0  0 
 24 44  1  0  0  0  0 
M  END
> <cdk:Title>
58956276

> <cdk:Remark>
null

> <PUBCHEM_COMPOUND_CID>
58956276

> <PUBCHEM_COMPOUND_CANONICALIZED>
1

> <PUBCHEM_CACTVS_COMPLEXITY>
395

> <PUBCHEM_CACTVS_HBOND_ACCEPTOR>
4

> <PUBCHEM_CACTVS_HBOND_DONOR>
2

> <PUBCHEM_CACTVS_ROTATABLE_BOND>
4

> <PUBCHEM_CACTVS_SUBSKEYS>
AAADceB7gAAAAAAAAAAAAAAAAAAAAYAAAAA8YIAAAAAAAGAB0AAAHAAQAAAADAjBGgQ/8JbIEACgAjZnZACCgCkxAqAJ2CAoZJiIKOLA2dGEJAhokALIyCcQgIAOiAAAQAAQAAAQAACAACAAAAAACAAAAA==

> <PUBCHEM_IUPAC_OPENEYE_NAME>
N4-indan-5-yl-5-methyl-N2-phenyl-pyrimidine-2,4-diamine

> <PUBCHEM_IUPAC_CAS_NAME>
N4-(2,3-dihydro-1H-inden-5-yl)-5-methyl-N2-phenylpyrimidine-2,4-diamine

> <PUBCHEM_IUPAC_NAME>
4-N-(2,3-dihydro-1H-inden-5-yl)-5-methyl-2-N-phenylpyrimidine-2,4-diamine

> <PUBCHEM_IUPAC_SYSTEMATIC_NAME>
N4-(2,3-dihydro-1H-inden-5-yl)-5-methyl-N2-phenyl-pyrimidine-2,4-diamine

> <PUBCHEM_IUPAC_TRADITIONAL_NAME>
(2-anilino-5-methyl-pyrimidin-4-yl)-indan-5-yl-amine

> <PUBCHEM_IUPAC_INCHI>
InChI=1S/C20H20N4/c1-14-13-21-20(23-17-8-3-2-4-9-17)24-19(14)22-18-11-10-15-6-5-7-16(15)12-18/h2-4,8-13H,5-7H2,1H3,(H2,21,22,23,24)

> <PUBCHEM_IUPAC_INCHIKEY>
GZTHGDAVBNMJIU-UHFFFAOYSA-N

> <PUBCHEM_XLOGP3_AA>
5.2

> <PUBCHEM_EXACT_MASS>
316.168797

> <PUBCHEM_MOLECULAR_FORMULA>
C20H20N4

> <PUBCHEM_MOLECULAR_WEIGHT>
316.3996

> <PUBCHEM_OPENEYE_CAN_SMILES>
CC1=CN=C(N=C1NC2=CC3=C(CCC3)C=C2)NC4=CC=CC=C4

> <PUBCHEM_OPENEYE_ISO_SMILES>
CC1=CN=C(N=C1NC2=CC3=C(CCC3)C=C2)NC4=CC=CC=C4

> <PUBCHEM_CACTVS_TPSA>
49.8

> <PUBCHEM_MONOISOTOPIC_WEIGHT>
316.168797

> <PUBCHEM_TOTAL_CHARGE>
0

> <PUBCHEM_HEAVY_ATOM_COUNT>
24

> <PUBCHEM_ATOM_DEF_STEREO_COUNT>
0

> <PUBCHEM_ATOM_UDEF_STEREO_COUNT>
0

> <PUBCHEM_BOND_DEF_STEREO_COUNT>
0

> <PUBCHEM_BOND_UDEF_STEREO_COUNT>
0

> <PUBCHEM_ISOTOPIC_ATOM_COUNT>
0

> <PUBCHEM_COMPONENT_COUNT>
1

> <PUBCHEM_CACTVS_TAUTO_COUNT>
9

> <PUBCHEM_COORDINATE_TYPE>
1

> <PUBCHEM_BONDANNOTATIONS>
10  12  8

$$$$
