34299360
  CDK     1228141037

 54 57  0  0  0  0  0  0  0  0999 V2000
    2.0000   -3.6555    0.0000 F   0  0  0  0  0  0  0  0  0  0  0  0
    5.4641    2.3445    0.0000 O   0  0  0  0  0  0  0  0  0  0  0  0
    6.3301   -1.1555    0.0000 O   0  0  0  0  0  0  0  0  0  0  0  0
    2.8660   -2.1555    0.0000 O   0  0  0  0  0  0  0  0  0  0  0  0
    8.7788    2.6809    0.0000 N   0  0  0  0  0  0  0  0  0  0  0  0
    8.2788    3.5470    0.0000 N   0  0  0  0  0  0  0  0  0  0  0  0
    6.3301    0.8445    0.0000 N   0  0  0  0  0  0  0  0  0  0  0  0
    5.4641    0.3445    0.0000 N   0  0  0  0  0  0  0  0  0  0  0  0
    4.5981   -2.1555    0.0000 N   0  0  0  0  0  0  0  0  0  0  0  0
    7.3007    3.3391    0.0000 C   0  0  0  0  0  0  0  0  0  0  0  0
    7.1962    2.3445    0.0000 C   0  0  0  0  0  0  0  0  0  0  0  0
    8.1097    1.9378    0.0000 C   0  0  0  0  0  0  0  0  0  0  0  0
    6.5575    4.0082    0.0000 C   0  0  0  0  0  0  0  0  0  0  0  0
    9.7734    2.5764    0.0000 C   0  0  0  0  0  0  0  0  0  0  0  0
    6.3301    1.8445    0.0000 C   0  0  0  0  0  0  0  0  0  0  0  0
    6.7654    4.9863    0.0000 C   0  0  0  0  0  0  0  0  0  0  0  0
    5.6065    3.6992    0.0000 C   0  0  0  0  0  0  0  0  0  0  0  0
   10.1801    1.6629    0.0000 C   0  0  0  0  0  0  0  0  0  0  0  0
   10.3611    3.3854    0.0000 C   0  0  0  0  0  0  0  0  0  0  0  0
    6.0223    5.6555    0.0000 C   0  0  0  0  0  0  0  0  0  0  0  0
    4.8633    4.3683    0.0000 C   0  0  0  0  0  0  0  0  0  0  0  0
   11.1746    1.5583    0.0000 C   0  0  0  0  0  0  0  0  0  0  0  0
   11.3557    3.2809    0.0000 C   0  0  0  0  0  0  0  0  0  0  0  0
    5.0712    5.3464    0.0000 C   0  0  0  0  0  0  0  0  0  0  0  0
   11.7624    2.3674    0.0000 C   0  0  0  0  0  0  0  0  0  0  0  0
    4.5981   -1.1555    0.0000 C   0  0  0  0  0  0  0  0  0  0  0  0
    5.4641   -0.6555    0.0000 C   0  0  0  0  0  0  0  0  0  0  0  0
    3.7320   -3.6555    0.0000 C   0  0  0  0  0  0  0  0  0  0  0  0
    3.7320   -2.6555    0.0000 C   0  0  0  0  0  0  0  0  0  0  0  0
    2.8660   -4.1555    0.0000 C   0  0  0  0  0  0  0  0  0  0  0  0
    4.5981   -4.1555    0.0000 C   0  0  0  0  0  0  0  0  0  0  0  0
    2.8660   -5.1555    0.0000 C   0  0  0  0  0  0  0  0  0  0  0  0
    4.5981   -5.1555    0.0000 C   0  0  0  0  0  0  0  0  0  0  0  0
    3.7320   -5.6555    0.0000 C   0  0  0  0  0  0  0  0  0  0  0  0
    8.2386    1.3314    0.0000 H   0  0  0  0  0  0  0  0  0  0  0  0
    7.3551    5.1779    0.0000 H   0  0  0  0  0  0  0  0  0  0  0  0
    5.4776    3.0927    0.0000 H   0  0  0  0  0  0  0  0  0  0  0  0
    9.8157    1.1613    0.0000 H   0  0  0  0  0  0  0  0  0  0  0  0
   10.1090    3.9518    0.0000 H   0  0  0  0  0  0  0  0  0  0  0  0
    6.8671    0.5345    0.0000 H   0  0  0  0  0  0  0  0  0  0  0  0
    6.1512    6.2619    0.0000 H   0  0  0  0  0  0  0  0  0  0  0  0
    4.2737    4.1767    0.0000 H   0  0  0  0  0  0  0  0  0  0  0  0
   11.4268    0.9919    0.0000 H   0  0  0  0  0  0  0  0  0  0  0  0
   11.7201    3.7825    0.0000 H   0  0  0  0  0  0  0  0  0  0  0  0
    4.6105    5.7613    0.0000 H   0  0  0  0  0  0  0  0  0  0  0  0
   12.3790    2.3026    0.0000 H   0  0  0  0  0  0  0  0  0  0  0  0
    4.9272    0.6545    0.0000 H   0  0  0  0  0  0  0  0  0  0  0  0
    4.3860   -0.5729    0.0000 H   0  0  0  0  0  0  0  0  0  0  0  0
    3.9875   -1.2631    0.0000 H   0  0  0  0  0  0  0  0  0  0  0  0
    5.1350   -2.4655    0.0000 H   0  0  0  0  0  0  0  0  0  0  0  0
    5.1350   -3.8455    0.0000 H   0  0  0  0  0  0  0  0  0  0  0  0
    2.3291   -5.4655    0.0000 H   0  0  0  0  0  0  0  0  0  0  0  0
    5.1350   -5.4655    0.0000 H   0  0  0  0  0  0  0  0  0  0  0  0
    3.7320   -6.2755    0.0000 H   0  0  0  0  0  0  0  0  0  0  0  0
  1 30  1  0  0  0  0 
  2 15  2  0  0  0  0 
  3 27  2  0  0  0  0 
  4 29  2  0  0  0  0 
  5  6  1  0  0  0  0 
  5 12  1  0  0  0  0 
  5 14  1  0  0  0  0 
  6 10  2  0  0  0  0 
  7  8  1  0  0  0  0 
  7 15  1  0  0  0  0 
  7 40  1  0  0  0  0 
  8 27  1  0  0  0  0 
  8 47  1  0  0  0  0 
  9 26  1  0  0  0  0 
  9 29  1  0  0  0  0 
  9 50  1  0  0  0  0 
 10 11  1  0  0  0  0 
 10 13  1  0  0  0  0 
 11 12  2  0  0  0  0 
 11 15  1  0  0  0  0 
 12 35  1  0  0  0  0 
 13 16  2  0  0  0  0 
 13 17  1  0  0  0  0 
 14 18  2  0  0  0  0 
 14 19  1  0  0  0  0 
 16 20  1  0  0  0  0 
 16 36  1  0  0  0  0 
 17 21  2  0  0  0  0 
 17 37  1  0  0  0  0 
 18 22  1  0  0  0  0 
 18 38  1  0  0  0  0 
 19 23  2  0  0  0  0 
 19 39  1  0  0  0  0 
 20 24  2  0  0  0  0 
 20 41  1  0  0  0  0 
 21 24  1  0  0  0  0 
 21 42  1  0  0  0  0 
 22 25  2  0  0  0  0 
 22 43  1  0  0  0  0 
 23 25  1  0  0  0  0 
 23 44  1  0  0  0  0 
 24 45  1  0  0  0  0 
 25 46  1  0  0  0  0 
 26 27  1  0  0  0  0 
 26 48  1  0  0  0  0 
 26 49  1  0  0  0  0 
 28 29  1  0  0  0  0 
 28 30  1  0  0  0  0 
 28 31  2  0  0  0  0 
 30 32  2  0  0  0  0 
 31 33  1  0  0  0  0 
 31 51  1  0  0  0  0 
 32 34  1  0  0  0  0 
 32 52  1  0  0  0  0 
 33 34  2  0  0  0  0 
 33 53  1  0  0  0  0 
 34 54  1  0  0  0  0 
M  END
> <cdk:Title>
34299360

> <cdk:Remark>
null

> <PUBCHEM_COMPOUND_CID>
34299360

> <PUBCHEM_COMPOUND_CANONICALIZED>
1

> <PUBCHEM_CACTVS_COMPLEXITY>
711

> <PUBCHEM_CACTVS_HBOND_ACCEPTOR>
5

> <PUBCHEM_CACTVS_HBOND_DONOR>
3

> <PUBCHEM_CACTVS_ROTATABLE_BOND>
6

> <PUBCHEM_CACTVS_SUBSKEYS>
AAADceB7sQAAAAAAAAAAAAAAAAAAAWAAAAAwYMAAAAAAAAAB1AAAHwAYAAAADAjBngw8wJLqAACqAzV3VACSBCA1ggIauKGoZNgIYPrA1fGUpYhgngDIyccYiMCOAAAAAAAAAAAAAAAAAAAAAAAAAAAAAA==

> <PUBCHEM_IUPAC_OPENEYE_NAME>
N-[2-[2-(1,3-diphenylpyrazole-4-carbonyl)hydrazino]-2-oxo-ethyl]-2-fluoro-benzamide

> <PUBCHEM_IUPAC_CAS_NAME>
N-[2-[[(1,3-diphenyl-4-pyrazolyl)-oxomethyl]hydrazo]-2-oxoethyl]-2-fluorobenzamide

> <PUBCHEM_IUPAC_NAME>
N-[2-[2-(1,3-diphenylpyrazole-4-carbonyl)hydrazinyl]-2-oxoethyl]-2-fluorobenzamide

> <PUBCHEM_IUPAC_SYSTEMATIC_NAME>
N-[2-[2-(1,3-diphenylpyrazol-4-yl)carbonylhydrazinyl]-2-oxidanylidene-ethyl]-2-fluoranyl-benzamide

> <PUBCHEM_IUPAC_TRADITIONAL_NAME>
N-[2-[N'-(1,3-diphenylpyrazole-4-carbonyl)hydrazino]-2-keto-ethyl]-2-fluoro-benzamide

> <PUBCHEM_IUPAC_INCHI>
InChI=1S/C25H20FN5O3/c26-21-14-8-7-13-19(21)24(33)27-15-22(32)28-29-25(34)20-16-31(18-11-5-2-6-12-18)30-23(20)17-9-3-1-4-10-17/h1-14,16H,15H2,(H,27,33)(H,28,32)(H,29,34)

> <PUBCHEM_IUPAC_INCHIKEY>
YNNBTPCOCPZQTI-UHFFFAOYSA-N

> <PUBCHEM_XLOGP3_AA>
3.4

> <PUBCHEM_EXACT_MASS>
457.155018

> <PUBCHEM_MOLECULAR_FORMULA>
C25H20FN5O3

> <PUBCHEM_MOLECULAR_WEIGHT>
457.456403

> <PUBCHEM_OPENEYE_CAN_SMILES>
C1=CC=C(C=C1)C2=NN(C=C2C(=O)NNC(=O)CNC(=O)C3=CC=CC=C3F)C4=CC=CC=C4

> <PUBCHEM_OPENEYE_ISO_SMILES>
C1=CC=C(C=C1)C2=NN(C=C2C(=O)NNC(=O)CNC(=O)C3=CC=CC=C3F)C4=CC=CC=C4

> <PUBCHEM_CACTVS_TPSA>
105

> <PUBCHEM_MONOISOTOPIC_WEIGHT>
457.155018

> <PUBCHEM_TOTAL_CHARGE>
0

> <PUBCHEM_HEAVY_ATOM_COUNT>
34

> <PUBCHEM_ATOM_DEF_STEREO_COUNT>
0

> <PUBCHEM_ATOM_UDEF_STEREO_COUNT>
0

> <PUBCHEM_BOND_DEF_STEREO_COUNT>
0

> <PUBCHEM_BOND_UDEF_STEREO_COUNT>
0

> <PUBCHEM_ISOTOPIC_ATOM_COUNT>
0

> <PUBCHEM_COMPONENT_COUNT>
1

> <PUBCHEM_CACTVS_TAUTO_COUNT>
8

> <PUBCHEM_COORDINATE_TYPE>
1

> <PUBCHEM_BONDANNOTATIONS>
10  11  8

$$$$
