33295171
  CDK     1229141458

 57 59  0  0  0  0  0  0  0  0999 V2000
    7.1382   -3.5086    0.0000 S   0  0  0  0  0  0  0  0  0  0  0  0
    2.8090   -4.0963    0.0000 S   0  0  0  0  0  0  0  0  0  0  0  0
    5.3781   -0.2298    0.0000 O   0  0  0  0  0  0  0  0  0  0  0  0
    7.1102   -0.2298    0.0000 N   0  0  0  0  0  0  0  0  0  0  0  0
    5.3781   -3.2298    0.0000 N   0  0  0  0  0  0  0  0  0  0  0  0
    5.8781   -4.7686    0.0000 N   0  0  0  0  0  0  0  0  0  0  0  0
    4.8781   -4.7686    0.0000 N   0  0  0  0  0  0  0  0  0  0  0  0
    7.1102    2.7702    0.0000 C   0  0  0  0  0  0  0  0  0  0  0  0
    7.1102    3.7702    0.0000 C   0  0  0  0  0  0  0  0  0  0  0  0
    7.9762    2.2702    0.0000 C   0  0  0  0  0  0  0  0  0  0  0  0
    6.2441    2.2702    0.0000 C   0  0  0  0  0  0  0  0  0  0  0  0
    7.1102    0.7702    0.0000 C   0  0  0  0  0  0  0  0  0  0  0  0
    7.9762    1.2702    0.0000 C   0  0  0  0  0  0  0  0  0  0  0  0
    6.2441    1.2702    0.0000 C   0  0  0  0  0  0  0  0  0  0  0  0
    7.1102    4.7702    0.0000 C   0  0  0  0  0  0  0  0  0  0  0  0
    8.1102    3.7702    0.0000 C   0  0  0  0  0  0  0  0  0  0  0  0
    6.1102    3.7702    0.0000 C   0  0  0  0  0  0  0  0  0  0  0  0
    7.9762    5.2702    0.0000 C   0  0  0  0  0  0  0  0  0  0  0  0
    6.2441   -0.7298    0.0000 C   0  0  0  0  0  0  0  0  0  0  0  0
    6.2441   -1.7298    0.0000 C   0  0  0  0  0  0  0  0  0  0  0  0
    5.3781   -2.2298    0.0000 C   0  0  0  0  0  0  0  0  0  0  0  0
    4.5691   -3.8176    0.0000 C   0  0  0  0  0  0  0  0  0  0  0  0
    6.1871   -3.8176    0.0000 C   0  0  0  0  0  0  0  0  0  0  0  0
    3.6180   -3.5086    0.0000 C   0  0  0  0  0  0  0  0  0  0  0  0
    3.3090   -2.5575    0.0000 C   0  0  0  0  0  0  0  0  0  0  0  0
    2.3090   -2.5575    0.0000 C   0  0  0  0  0  0  0  0  0  0  0  0
    2.0000   -3.5086    0.0000 C   0  0  0  0  0  0  0  0  0  0  0  0
    7.6471    3.0802    0.0000 H   0  0  0  0  0  0  0  0  0  0  0  0
    8.5868    2.1626    0.0000 H   0  0  0  0  0  0  0  0  0  0  0  0
    8.1882    2.8528    0.0000 H   0  0  0  0  0  0  0  0  0  0  0  0
    6.0321    2.8528    0.0000 H   0  0  0  0  0  0  0  0  0  0  0  0
    5.6335    2.1626    0.0000 H   0  0  0  0  0  0  0  0  0  0  0  0
    7.6471    0.4602    0.0000 H   0  0  0  0  0  0  0  0  0  0  0  0
    8.1882    0.6876    0.0000 H   0  0  0  0  0  0  0  0  0  0  0  0
    8.5868    1.3779    0.0000 H   0  0  0  0  0  0  0  0  0  0  0  0
    5.6335    1.3779    0.0000 H   0  0  0  0  0  0  0  0  0  0  0  0
    6.0321    0.6876    0.0000 H   0  0  0  0  0  0  0  0  0  0  0  0
    6.8981    5.3528    0.0000 H   0  0  0  0  0  0  0  0  0  0  0  0
    6.4996    4.6626    0.0000 H   0  0  0  0  0  0  0  0  0  0  0  0
    8.1102    3.1502    0.0000 H   0  0  0  0  0  0  0  0  0  0  0  0
    8.7302    3.7702    0.0000 H   0  0  0  0  0  0  0  0  0  0  0  0
    8.1102    4.3902    0.0000 H   0  0  0  0  0  0  0  0  0  0  0  0
    6.1102    4.3902    0.0000 H   0  0  0  0  0  0  0  0  0  0  0  0
    5.4902    3.7702    0.0000 H   0  0  0  0  0  0  0  0  0  0  0  0
    6.1102    3.1502    0.0000 H   0  0  0  0  0  0  0  0  0  0  0  0
    7.6471   -0.5398    0.0000 H   0  0  0  0  0  0  0  0  0  0  0  0
    8.2862    4.7333    0.0000 H   0  0  0  0  0  0  0  0  0  0  0  0
    8.5131    5.5802    0.0000 H   0  0  0  0  0  0  0  0  0  0  0  0
    7.6662    5.8072    0.0000 H   0  0  0  0  0  0  0  0  0  0  0  0
    6.4562   -2.3124    0.0000 H   0  0  0  0  0  0  0  0  0  0  0  0
    6.8547   -1.6221    0.0000 H   0  0  0  0  0  0  0  0  0  0  0  0
    5.1661   -1.6472    0.0000 H   0  0  0  0  0  0  0  0  0  0  0  0
    4.7675   -2.3375    0.0000 H   0  0  0  0  0  0  0  0  0  0  0  0
    6.2425   -5.2702    0.0000 H   0  0  0  0  0  0  0  0  0  0  0  0
    3.6734   -2.0559    0.0000 H   0  0  0  0  0  0  0  0  0  0  0  0
    1.9446   -2.0559    0.0000 H   0  0  0  0  0  0  0  0  0  0  0  0
    1.4103   -3.7001    0.0000 H   0  0  0  0  0  0  0  0  0  0  0  0
  1 23  2  0  0  0  0 
  2 24  1  0  0  0  0 
  2 27  1  0  0  0  0 
  3 19  2  0  0  0  0 
  4 12  1  0  0  0  0 
  4 19  1  0  0  0  0 
  4 46  1  0  0  0  0 
  5 21  1  0  0  0  0 
  5 22  1  0  0  0  0 
  5 23  1  0  0  0  0 
  6  7  1  0  0  0  0 
  6 23  1  0  0  0  0 
  6 54  1  0  0  0  0 
  7 22  2  0  0  0  0 
  8  9  1  0  0  0  0 
  8 10  1  0  0  0  0 
  8 11  1  0  0  0  0 
  8 28  1  0  0  0  0 
  9 15  1  0  0  0  0 
  9 16  1  0  0  0  0 
  9 17  1  0  0  0  0 
 10 13  1  0  0  0  0 
 10 29  1  0  0  0  0 
 10 30  1  0  0  0  0 
 11 14  1  0  0  0  0 
 11 31  1  0  0  0  0 
 11 32  1  0  0  0  0 
 12 13  1  0  0  0  0 
 12 14  1  0  0  0  0 
 12 33  1  0  0  0  0 
 13 34  1  0  0  0  0 
 13 35  1  0  0  0  0 
 14 36  1  0  0  0  0 
 14 37  1  0  0  0  0 
 15 18  1  0  0  0  0 
 15 38  1  0  0  0  0 
 15 39  1  0  0  0  0 
 16 40  1  0  0  0  0 
 16 41  1  0  0  0  0 
 16 42  1  0  0  0  0 
 17 43  1  0  0  0  0 
 17 44  1  0  0  0  0 
 17 45  1  0  0  0  0 
 18 47  1  0  0  0  0 
 18 48  1  0  0  0  0 
 18 49  1  0  0  0  0 
 19 20  1  0  0  0  0 
 20 21  1  0  0  0  0 
 20 50  1  0  0  0  0 
 20 51  1  0  0  0  0 
 21 52  1  0  0  0  0 
 21 53  1  0  0  0  0 
 22 24  1  0  0  0  0 
 24 25  2  0  0  0  0 
 25 26  1  0  0  0  0 
 25 55  1  0  0  0  0 
 26 27  2  0  0  0  0 
 26 56  1  0  0  0  0 
 27 57  1  0  0  0  0 
M  END
> <cdk:Title>
33295171

> <cdk:Remark>
null

> <PUBCHEM_COMPOUND_CID>
33295171

> <PUBCHEM_COMPOUND_CANONICALIZED>
1

> <PUBCHEM_CACTVS_COMPLEXITY>
585

> <PUBCHEM_CACTVS_HBOND_ACCEPTOR>
4

> <PUBCHEM_CACTVS_HBOND_DONOR>
2

> <PUBCHEM_CACTVS_ROTATABLE_BOND>
7

> <PUBCHEM_CACTVS_SUBSKEYS>
AAADceB7oABgAAAAAAAAAAAAAAAAASIAAAAwAAAAAAAAAAABgAAAHgQYAAAADyjF0ASzAYPiAAisACNyMACTAIAgCBlNiJkoBJiIIKqg2RGEAAhgngKoiAcQgMAPgAAAAAAAAAAQAAAAAAAAAAAAAAAAAA==

> <PUBCHEM_IUPAC_OPENEYE_NAME>
N-[4-(1,1-dimethylpropyl)cyclohexyl]-3-[3-(2-thienyl)-5-thioxo-1H-1,2,4-triazol-4-yl]propanamide

> <PUBCHEM_IUPAC_CAS_NAME>
N-[4-(2-methylbutan-2-yl)cyclohexyl]-3-(5-sulfanylidene-3-thiophen-2-yl-1H-1,2,4-triazol-4-yl)propanamide

> <PUBCHEM_IUPAC_NAME>
N-[4-(2-methylbutan-2-yl)cyclohexyl]-3-(5-sulfanylidene-3-thiophen-2-yl-1H-1,2,4-triazol-4-yl)propanamide

> <PUBCHEM_IUPAC_SYSTEMATIC_NAME>
N-[4-(2-methylbutan-2-yl)cyclohexyl]-3-(5-sulfanylidene-3-thiophen-2-yl-1H-1,2,4-triazol-4-yl)propanamide

> <PUBCHEM_IUPAC_TRADITIONAL_NAME>
N-(4-tert-amylcyclohexyl)-3-[3-(2-thienyl)-5-thioxo-1H-1,2,4-triazol-4-yl]propionamide

> <PUBCHEM_IUPAC_INCHI>
InChI=1S/C20H30N4OS2/c1-4-20(2,3)14-7-9-15(10-8-14)21-17(25)11-12-24-18(22-23-19(24)26)16-6-5-13-27-16/h5-6,13-15H,4,7-12H2,1-3H3,(H,21,25)(H,23,26)

> <PUBCHEM_IUPAC_INCHIKEY>
IUGXGEKRWLMNSL-UHFFFAOYSA-N

> <PUBCHEM_XLOGP3_AA>
4.7

> <PUBCHEM_EXACT_MASS>
406.186104

> <PUBCHEM_MOLECULAR_FORMULA>
C20H30N4OS2

> <PUBCHEM_MOLECULAR_WEIGHT>
406.6084

> <PUBCHEM_OPENEYE_CAN_SMILES>
CCC(C)(C)C1CCC(CC1)NC(=O)CCN2C(=NNC2=S)C3=CC=CS3

> <PUBCHEM_OPENEYE_ISO_SMILES>
CCC(C)(C)C1CCC(CC1)NC(=O)CCN2C(=NNC2=S)C3=CC=CS3

> <PUBCHEM_CACTVS_TPSA>
117

> <PUBCHEM_MONOISOTOPIC_WEIGHT>
406.186104

> <PUBCHEM_TOTAL_CHARGE>
0

> <PUBCHEM_HEAVY_ATOM_COUNT>
27

> <PUBCHEM_ATOM_DEF_STEREO_COUNT>
0

> <PUBCHEM_ATOM_UDEF_STEREO_COUNT>
0

> <PUBCHEM_BOND_DEF_STEREO_COUNT>
0

> <PUBCHEM_BOND_UDEF_STEREO_COUNT>
0

> <PUBCHEM_ISOTOPIC_ATOM_COUNT>
0

> <PUBCHEM_COMPONENT_COUNT>
1

> <PUBCHEM_CACTVS_TAUTO_COUNT>
4

> <PUBCHEM_COORDINATE_TYPE>
1

> <PUBCHEM_BONDANNOTATIONS>
2  24  8

$$$$
33221389
  CDK     1229141458

 50 52  0  0  0  0  0  0  0  0999 V2000
    3.7320   -1.0670    0.0000 S   0  0  0  0  0  0  0  0  0  0  0  0
    3.2320   -0.2010    0.0000 O   0  0  0  0  0  0  0  0  0  0  0  0
    4.2320   -1.9330    0.0000 O   0  0  0  0  0  0  0  0  0  0  0  0
    8.0622   -0.5670    0.0000 O   0  0  0  0  0  0  0  0  0  0  0  0
   14.2045    0.7377    0.0000 O   0  0  0  0  0  0  0  0  0  0  0  0
   14.2045   -0.8717    0.0000 O   0  0  0  0  0  0  0  0  0  0  0  0
   10.6603    1.9330    0.0000 O   0  0  0  0  0  0  0  0  0  0  0  0
    4.5981   -0.5670    0.0000 N   0  0  0  0  0  0  0  0  0  0  0  0
    7.1962    0.9330    0.0000 N   0  0  0  0  0  0  0  0  0  0  0  0
    9.7942    0.4330    0.0000 N   0  0  0  0  0  0  0  0  0  0  0  0
    6.3301    0.4330    0.0000 C   0  0  0  0  0  0  0  0  0  0  0  0
    6.3301   -0.5670    0.0000 C   0  0  0  0  0  0  0  0  0  0  0  0
    5.4641    0.9330    0.0000 C   0  0  0  0  0  0  0  0  0  0  0  0
    5.4641   -1.0670    0.0000 C   0  0  0  0  0  0  0  0  0  0  0  0
    4.5981    0.4330    0.0000 C   0  0  0  0  0  0  0  0  0  0  0  0
    2.8660   -1.5670    0.0000 C   0  0  0  0  0  0  0  0  0  0  0  0
    8.0622    0.4330    0.0000 C   0  0  0  0  0  0  0  0  0  0  0  0
    2.0000   -1.0670    0.0000 C   0  0  0  0  0  0  0  0  0  0  0  0
    8.9282    0.9330    0.0000 C   0  0  0  0  0  0  0  0  0  0  0  0
   10.6603    0.9330    0.0000 C   0  0  0  0  0  0  0  0  0  0  0  0
   11.5263    0.4330    0.0000 C   0  0  0  0  0  0  0  0  0  0  0  0
   12.3923    0.9330    0.0000 C   0  0  0  0  0  0  0  0  0  0  0  0
   13.2583    0.4330    0.0000 C   0  0  0  0  0  0  0  0  0  0  0  0
   13.2583   -0.5670    0.0000 C   0  0  0  0  0  0  0  0  0  0  0  0
   11.5263   -0.5670    0.0000 C   0  0  0  0  0  0  0  0  0  0  0  0
   12.3923   -1.0670    0.0000 C   0  0  0  0  0  0  0  0  0  0  0  0
   14.7882   -0.0670    0.0000 C   0  0  0  0  0  0  0  0  0  0  0  0
    6.8671    0.1230    0.0000 H   0  0  0  0  0  0  0  0  0  0  0  0
    5.8626    1.4080    0.0000 H   0  0  0  0  0  0  0  0  0  0  0  0
    6.5422   -1.1496    0.0000 H   0  0  0  0  0  0  0  0  0  0  0  0
    6.9407   -0.4593    0.0000 H   0  0  0  0  0  0  0  0  0  0  0  0
    5.0656    1.4080    0.0000 H   0  0  0  0  0  0  0  0  0  0  0  0
    4.3860    1.0156    0.0000 H   0  0  0  0  0  0  0  0  0  0  0  0
    3.9875    0.3254    0.0000 H   0  0  0  0  0  0  0  0  0  0  0  0
    5.0656   -1.5419    0.0000 H   0  0  0  0  0  0  0  0  0  0  0  0
    5.8626   -1.5419    0.0000 H   0  0  0  0  0  0  0  0  0  0  0  0
    7.1962    1.5530    0.0000 H   0  0  0  0  0  0  0  0  0  0  0  0
    2.4675   -2.0419    0.0000 H   0  0  0  0  0  0  0  0  0  0  0  0
    3.2646   -2.0419    0.0000 H   0  0  0  0  0  0  0  0  0  0  0  0
    2.3100   -0.5301    0.0000 H   0  0  0  0  0  0  0  0  0  0  0  0
    1.4631   -0.7570    0.0000 H   0  0  0  0  0  0  0  0  0  0  0  0
    1.6900   -1.6039    0.0000 H   0  0  0  0  0  0  0  0  0  0  0  0
    9.3267    1.4080    0.0000 H   0  0  0  0  0  0  0  0  0  0  0  0
    8.5297    1.4080    0.0000 H   0  0  0  0  0  0  0  0  0  0  0  0
    9.7942   -0.1870    0.0000 H   0  0  0  0  0  0  0  0  0  0  0  0
   12.3923    1.5530    0.0000 H   0  0  0  0  0  0  0  0  0  0  0  0
   10.9893   -0.8770    0.0000 H   0  0  0  0  0  0  0  0  0  0  0  0
   12.3923   -1.6870    0.0000 H   0  0  0  0  0  0  0  0  0  0  0  0
   15.2490   -0.4817    0.0000 H   0  0  0  0  0  0  0  0  0  0  0  0
   15.2490    0.3477    0.0000 H   0  0  0  0  0  0  0  0  0  0  0  0
  1  2  2  0  0  0  0 
  1  3  2  0  0  0  0 
  1  8  1  0  0  0  0 
  1 16  1  0  0  0  0 
  4 17  2  0  0  0  0 
  5 23  1  0  0  0  0 
  5 27  1  0  0  0  0 
  6 24  1  0  0  0  0 
  6 27  1  0  0  0  0 
  7 20  2  0  0  0  0 
  8 14  1  0  0  0  0 
  8 15  1  0  0  0  0 
  9 11  1  0  0  0  0 
  9 17  1  0  0  0  0 
  9 37  1  0  0  0  0 
 10 19  1  0  0  0  0 
 10 20  1  0  0  0  0 
 10 45  1  0  0  0  0 
 11 12  1  0  0  0  0 
 11 13  1  0  0  0  0 
 11 28  1  0  0  0  0 
 12 14  1  0  0  0  0 
 12 30  1  0  0  0  0 
 12 31  1  0  0  0  0 
 13 15  1  0  0  0  0 
 13 29  1  0  0  0  0 
 13 32  1  0  0  0  0 
 14 35  1  0  0  0  0 
 14 36  1  0  0  0  0 
 15 33  1  0  0  0  0 
 15 34  1  0  0  0  0 
 16 18  1  0  0  0  0 
 16 38  1  0  0  0  0 
 16 39  1  0  0  0  0 
 17 19  1  0  0  0  0 
 18 40  1  0  0  0  0 
 18 41  1  0  0  0  0 
 18 42  1  0  0  0  0 
 19 43  1  0  0  0  0 
 19 44  1  0  0  0  0 
 20 21  1  0  0  0  0 
 21 22  2  0  0  0  0 
 21 25  1  0  0  0  0 
 22 23  1  0  0  0  0 
 22 46  1  0  0  0  0 
 23 24  2  0  0  0  0 
 24 26  1  0  0  0  0 
 25 26  2  0  0  0  0 
 25 47  1  0  0  0  0 
 26 48  1  0  0  0  0 
 27 49  1  0  0  0  0 
 27 50  1  0  0  0  0 
M  END
> <cdk:Title>
33221389

> <cdk:Remark>
null

> <PUBCHEM_COMPOUND_CID>
33221389

> <PUBCHEM_COMPOUND_CANONICALIZED>
1

> <PUBCHEM_CACTVS_COMPLEXITY>
642

> <PUBCHEM_CACTVS_HBOND_ACCEPTOR>
7

> <PUBCHEM_CACTVS_HBOND_DONOR>
2

> <PUBCHEM_CACTVS_ROTATABLE_BOND>
6

> <PUBCHEM_CACTVS_SUBSKEYS>
AAADceB7OABAAAAAAAAAAAAAAAAAASAAAAA8QAAAAAAAAEgBAAAAHgQQQAAADCzF2AeyDoLABAKIAiFSEHDCCAAkIAAIiIGOjMgdZjKE9Tu0MSpk1hGOqYe63BLOIAABAAAAQABAAAIAAACAAAAAAAAAAA==

> <PUBCHEM_IUPAC_OPENEYE_NAME>
N-[2-[(1-ethylsulfonyl-4-piperidyl)amino]-2-oxo-ethyl]-1,3-benzodioxole-5-carboxamide

> <PUBCHEM_IUPAC_CAS_NAME>
N-[2-[(1-ethylsulfonyl-4-piperidinyl)amino]-2-oxoethyl]-1,3-benzodioxole-5-carboxamide

> <PUBCHEM_IUPAC_NAME>
N-[2-[(1-ethylsulfonylpiperidin-4-yl)amino]-2-oxoethyl]-1,3-benzodioxole-5-carboxamide

> <PUBCHEM_IUPAC_SYSTEMATIC_NAME>
N-[2-[(1-ethylsulfonylpiperidin-4-yl)amino]-2-oxidanylidene-ethyl]-1,3-benzodioxole-5-carboxamide

> <PUBCHEM_IUPAC_TRADITIONAL_NAME>
N-[2-[(1-esyl-4-piperidyl)amino]-2-keto-ethyl]-piperonylamide

> <PUBCHEM_IUPAC_INCHI>
InChI=1S/C17H23N3O6S/c1-2-27(23,24)20-7-5-13(6-8-20)19-16(21)10-18-17(22)12-3-4-14-15(9-12)26-11-25-14/h3-4,9,13H,2,5-8,10-11H2,1H3,(H,18,22)(H,19,21)

> <PUBCHEM_IUPAC_INCHIKEY>
DJKFJYZWYNDKOQ-UHFFFAOYSA-N

> <PUBCHEM_XLOGP3_AA>
0.6

> <PUBCHEM_EXACT_MASS>
397.130756

> <PUBCHEM_MOLECULAR_FORMULA>
C17H23N3O6S

> <PUBCHEM_MOLECULAR_WEIGHT>
397.44602

> <PUBCHEM_OPENEYE_CAN_SMILES>
CCS(=O)(=O)N1CCC(CC1)NC(=O)CNC(=O)C2=CC3=C(C=C2)OCO3

> <PUBCHEM_OPENEYE_ISO_SMILES>
CCS(=O)(=O)N1CCC(CC1)NC(=O)CNC(=O)C2=CC3=C(C=C2)OCO3

> <PUBCHEM_CACTVS_TPSA>
122

> <PUBCHEM_MONOISOTOPIC_WEIGHT>
397.130756

> <PUBCHEM_TOTAL_CHARGE>
0

> <PUBCHEM_HEAVY_ATOM_COUNT>
27

> <PUBCHEM_ATOM_DEF_STEREO_COUNT>
0

> <PUBCHEM_ATOM_UDEF_STEREO_COUNT>
0

> <PUBCHEM_BOND_DEF_STEREO_COUNT>
0

> <PUBCHEM_BOND_UDEF_STEREO_COUNT>
0

> <PUBCHEM_ISOTOPIC_ATOM_COUNT>
0

> <PUBCHEM_COMPONENT_COUNT>
1

> <PUBCHEM_CACTVS_TAUTO_COUNT>
4

> <PUBCHEM_COORDINATE_TYPE>
1

> <PUBCHEM_BONDANNOTATIONS>
21  22  8

$$$$
47848549
  CDK     1229141458

 59 60  0  0  0  0  0  0  0  0999 V2000
    4.5981    5.7500    0.0000 O   0  0  0  0  0  0  0  0  0  0  0  0
    2.8660    4.7500    0.0000 O   0  0  0  0  0  0  0  0  0  0  0  0
    6.3301   -0.2500    0.0000 O   0  0  0  0  0  0  0  0  0  0  0  0
   10.6603   -4.7500    0.0000 N   0  0  3  0  0  0  0  0  0  0  0  0
    8.0622   -0.2500    0.0000 N   0  0  0  0  0  0  0  0  0  0  0  0
    7.1962    1.2500    0.0000 N   0  0  0  0  0  0  0  0  0  0  0  0
    9.7942   -4.2500    0.0000 C   0  0  0  0  0  0  0  0  0  0  0  0
    9.7942   -3.2500    0.0000 C   0  0  0  0  0  0  0  0  0  0  0  0
    8.9282   -1.7500    0.0000 C   0  0  0  0  0  0  0  0  0  0  0  0
    8.9282   -2.7500    0.0000 C   0  0  0  0  0  0  0  0  0  0  0  0
   10.6603   -5.7500    0.0000 C   0  0  0  0  0  0  0  0  0  0  0  0
    8.0622   -1.2500    0.0000 C   0  0  0  0  0  0  0  0  0  0  0  0
    6.3301    2.7500    0.0000 C   0  0  0  0  0  0  0  0  0  0  0  0
    6.3301    1.7500    0.0000 C   0  0  0  0  0  0  0  0  0  0  0  0
   10.6603   -2.7500    0.0000 C   0  0  0  0  0  0  0  0  0  0  0  0
    5.4641    3.2500    0.0000 C   0  0  0  0  0  0  0  0  0  0  0  0
    9.7942   -1.2500    0.0000 C   0  0  0  0  0  0  0  0  0  0  0  0
   11.5263   -4.2500    0.0000 C   0  0  0  0  0  0  0  0  0  0  0  0
   10.6603   -1.7500    0.0000 C   0  0  0  0  0  0  0  0  0  0  0  0
   11.5263   -6.2500    0.0000 C   0  0  0  0  0  0  0  0  0  0  0  0
    5.4641    4.2500    0.0000 C   0  0  0  0  0  0  0  0  0  0  0  0
    7.1962    0.2500    0.0000 C   0  0  0  0  0  0  0  0  0  0  0  0
    4.5981    2.7500    0.0000 C   0  0  0  0  0  0  0  0  0  0  0  0
    4.5981    4.7500    0.0000 C   0  0  0  0  0  0  0  0  0  0  0  0
    3.7320    4.2500    0.0000 C   0  0  0  0  0  0  0  0  0  0  0  0
    3.7320    3.2500    0.0000 C   0  0  0  0  0  0  0  0  0  0  0  0
    5.4641    6.2500    0.0000 C   0  0  0  0  0  0  0  0  0  0  0  0
    2.0000    4.2500    0.0000 C   0  0  0  0  0  0  0  0  0  0  0  0
    9.1836   -4.1423    0.0000 H   0  0  0  0  0  0  0  0  0  0  0  0
    9.5822   -4.8326    0.0000 H   0  0  0  0  0  0  0  0  0  0  0  0
    8.3913   -3.0600    0.0000 H   0  0  0  0  0  0  0  0  0  0  0  0
   10.0497   -5.6423    0.0000 H   0  0  0  0  0  0  0  0  0  0  0  0
   10.4482   -6.3326    0.0000 H   0  0  0  0  0  0  0  0  0  0  0  0
    7.4516   -1.1423    0.0000 H   0  0  0  0  0  0  0  0  0  0  0  0
    7.8501   -1.8326    0.0000 H   0  0  0  0  0  0  0  0  0  0  0  0
    6.9407    2.6423    0.0000 H   0  0  0  0  0  0  0  0  0  0  0  0
    6.5422    3.3326    0.0000 H   0  0  0  0  0  0  0  0  0  0  0  0
    5.7196    1.8577    0.0000 H   0  0  0  0  0  0  0  0  0  0  0  0
    6.1181    1.1674    0.0000 H   0  0  0  0  0  0  0  0  0  0  0  0
   11.1972   -3.0600    0.0000 H   0  0  0  0  0  0  0  0  0  0  0  0
    9.7942   -0.6300    0.0000 H   0  0  0  0  0  0  0  0  0  0  0  0
   11.8363   -4.7869    0.0000 H   0  0  0  0  0  0  0  0  0  0  0  0
   12.0632   -3.9400    0.0000 H   0  0  0  0  0  0  0  0  0  0  0  0
   11.2163   -3.7131    0.0000 H   0  0  0  0  0  0  0  0  0  0  0  0
   11.1972   -1.4400    0.0000 H   0  0  0  0  0  0  0  0  0  0  0  0
    8.5991    0.0600    0.0000 H   0  0  0  0  0  0  0  0  0  0  0  0
    7.7331    1.5600    0.0000 H   0  0  0  0  0  0  0  0  0  0  0  0
   11.2163   -6.7869    0.0000 H   0  0  0  0  0  0  0  0  0  0  0  0
   12.0632   -6.5600    0.0000 H   0  0  0  0  0  0  0  0  0  0  0  0
   11.8363   -5.7131    0.0000 H   0  0  0  0  0  0  0  0  0  0  0  0
    6.0010    4.5600    0.0000 H   0  0  0  0  0  0  0  0  0  0  0  0
    4.5981    2.1300    0.0000 H   0  0  0  0  0  0  0  0  0  0  0  0
    3.1951    2.9400    0.0000 H   0  0  0  0  0  0  0  0  0  0  0  0
    5.7741    5.7131    0.0000 H   0  0  0  0  0  0  0  0  0  0  0  0
    6.0010    6.5600    0.0000 H   0  0  0  0  0  0  0  0  0  0  0  0
    5.1541    6.7869    0.0000 H   0  0  0  0  0  0  0  0  0  0  0  0
    1.6900    4.7869    0.0000 H   0  0  0  0  0  0  0  0  0  0  0  0
    1.4631    3.9400    0.0000 H   0  0  0  0  0  0  0  0  0  0  0  0
    2.3100    3.7131    0.0000 H   0  0  0  0  0  0  0  0  0  0  0  0
  1 24  1  0  0  0  0 
  1 27  1  0  0  0  0 
  2 25  1  0  0  0  0 
  2 28  1  0  0  0  0 
  3 22  2  0  0  0  0 
  4  7  1  0  0  0  0 
  4 11  1  0  0  0  0 
  4 18  1  0  0  0  0 
  5 12  1  0  0  0  0 
  5 22  1  0  0  0  0 
  5 46  1  0  0  0  0 
  6 14  1  0  0  0  0 
  6 22  1  0  0  0  0 
  6 47  1  0  0  0  0 
  7  8  1  0  0  0  0 
  7 29  1  0  0  0  0 
  7 30  1  0  0  0  0 
  8 10  1  0  0  0  0 
  8 15  2  0  0  0  0 
  9 10  2  0  0  0  0 
  9 12  1  0  0  0  0 
  9 17  1  0  0  0  0 
 10 31  1  0  0  0  0 
 11 20  1  0  0  0  0 
 11 32  1  0  0  0  0 
 11 33  1  0  0  0  0 
 12 34  1  0  0  0  0 
 12 35  1  0  0  0  0 
 13 14  1  0  0  0  0 
 13 16  1  0  0  0  0 
 13 36  1  0  0  0  0 
 13 37  1  0  0  0  0 
 14 38  1  0  0  0  0 
 14 39  1  0  0  0  0 
 15 19  1  0  0  0  0 
 15 40  1  0  0  0  0 
 16 21  2  0  0  0  0 
 16 23  1  0  0  0  0 
 17 19  2  0  0  0  0 
 17 41  1  0  0  0  0 
 18 42  1  0  0  0  0 
 18 43  1  0  0  0  0 
 18 44  1  0  0  0  0 
 19 45  1  0  0  0  0 
 20 48  1  0  0  0  0 
 20 49  1  0  0  0  0 
 20 50  1  0  0  0  0 
 21 24  1  0  0  0  0 
 21 51  1  0  0  0  0 
 23 26  2  0  0  0  0 
 23 52  1  0  0  0  0 
 24 25  2  0  0  0  0 
 25 26  1  0  0  0  0 
 26 53  1  0  0  0  0 
 27 54  1  0  0  0  0 
 27 55  1  0  0  0  0 
 27 56  1  0  0  0  0 
 28 57  1  0  0  0  0 
 28 58  1  0  0  0  0 
 28 59  1  0  0  0  0 
M  END
> <cdk:Title>
47848549

> <cdk:Remark>
null

> <PUBCHEM_COMPOUND_CID>
47848549

> <PUBCHEM_COMPOUND_CANONICALIZED>
1

> <PUBCHEM_CACTVS_COMPLEXITY>
449

> <PUBCHEM_CACTVS_HBOND_ACCEPTOR>
4

> <PUBCHEM_CACTVS_HBOND_DONOR>
2

> <PUBCHEM_CACTVS_ROTATABLE_BOND>
10

> <PUBCHEM_CACTVS_SUBSKEYS>
AAADceB7MAAAAAAAAAAAAAAAAAAAAAAAAAAwYAAAAAAAAAABQAAAHgAQAAAADATBmAYzBoPABACIAiBCEACCCAAgIAAIiIAOjIiNJiKEsRuEMCps1hOKqAeQ0PIOIAADAAAAQABAAAYAAACAAAAAAAAAAA==

> <PUBCHEM_IUPAC_OPENEYE_NAME>
1-[2-(3,4-dimethoxyphenyl)ethyl]-3-[[3-[[ethyl(methyl)amino]methyl]phenyl]methyl]urea

> <PUBCHEM_IUPAC_CAS_NAME>
1-[2-(3,4-dimethoxyphenyl)ethyl]-3-[[3-[[ethyl(methyl)amino]methyl]phenyl]methyl]urea

> <PUBCHEM_IUPAC_NAME>
1-[2-(3,4-dimethoxyphenyl)ethyl]-3-[[3-[[ethyl(methyl)amino]methyl]phenyl]methyl]urea

> <PUBCHEM_IUPAC_SYSTEMATIC_NAME>
1-[2-(3,4-dimethoxyphenyl)ethyl]-3-[[3-[[ethyl(methyl)amino]methyl]phenyl]methyl]urea

> <PUBCHEM_IUPAC_TRADITIONAL_NAME>
1-[3-[[ethyl(methyl)amino]methyl]benzyl]-3-homoveratryl-urea

> <PUBCHEM_IUPAC_INCHI>
InChI=1S/C22H31N3O3/c1-5-25(2)16-19-8-6-7-18(13-19)15-24-22(26)23-12-11-17-9-10-20(27-3)21(14-17)28-4/h6-10,13-14H,5,11-12,15-16H2,1-4H3,(H2,23,24,26)

> <PUBCHEM_IUPAC_INCHIKEY>
JJNXFECBBNFEGI-UHFFFAOYSA-N

> <PUBCHEM_XLOGP3_AA>
3

> <PUBCHEM_EXACT_MASS>
385.236542

> <PUBCHEM_MOLECULAR_FORMULA>
C22H31N3O3

> <PUBCHEM_MOLECULAR_WEIGHT>
385.49984

> <PUBCHEM_OPENEYE_CAN_SMILES>
CCN(C)CC1=CC=CC(=C1)CNC(=O)NCCC2=CC(=C(C=C2)OC)OC

> <PUBCHEM_OPENEYE_ISO_SMILES>
CCN(C)CC1=CC=CC(=C1)CNC(=O)NCCC2=CC(=C(C=C2)OC)OC

> <PUBCHEM_CACTVS_TPSA>
62.8

> <PUBCHEM_MONOISOTOPIC_WEIGHT>
385.236542

> <PUBCHEM_TOTAL_CHARGE>
0

> <PUBCHEM_HEAVY_ATOM_COUNT>
28

> <PUBCHEM_ATOM_DEF_STEREO_COUNT>
0

> <PUBCHEM_ATOM_UDEF_STEREO_COUNT>
0

> <PUBCHEM_BOND_DEF_STEREO_COUNT>
0

> <PUBCHEM_BOND_UDEF_STEREO_COUNT>
0

> <PUBCHEM_ISOTOPIC_ATOM_COUNT>
0

> <PUBCHEM_COMPONENT_COUNT>
1

> <PUBCHEM_CACTVS_TAUTO_COUNT>
3

> <PUBCHEM_COORDINATE_TYPE>
1

> <PUBCHEM_BONDANNOTATIONS>
15  19  8

$$$$
54288463
  CDK     1229141458

 62 63  0  0  0  0  0  0  0  0999 V2000
    6.0010    1.2500    0.0000 O   0  0  0  0  0  0  0  0  0  0  0  0
   11.1972   -1.7500    0.0000 O   0  0  0  0  0  0  0  0  0  0  0  0
    2.5369   -1.7500    0.0000 O   0  0  0  0  0  0  0  0  0  0  0  0
    6.8671   -2.2500    0.0000 C   0  0  0  0  0  0  0  0  0  0  0  0
    9.4651    2.2500    0.0000 C   0  0  0  0  0  0  0  0  0  0  0  0
    6.0010   -1.7500    0.0000 C   0  0  0  0  0  0  0  0  0  0  0  0
    9.4651    1.2500    0.0000 C   0  0  0  0  0  0  0  0  0  0  0  0
   10.3312    2.7500    0.0000 C   0  0  0  0  0  0  0  0  0  0  0  0
    6.8671   -3.2500    0.0000 C   0  0  0  0  0  0  0  0  0  0  0  0
   10.3312    0.7500    0.0000 C   0  0  0  0  0  0  0  0  0  0  0  0
    5.1350   -2.2500    0.0000 C   0  0  0  0  0  0  0  0  0  0  0  0
    6.8671   -0.2500    0.0000 C   0  0  0  0  0  0  0  0  0  0  0  0
    7.7331    1.2500    0.0000 C   0  0  0  0  0  0  0  0  0  0  0  0
    6.0010   -0.7500    0.0000 C   0  0  0  0  0  0  0  0  0  0  0  0
    8.5991    0.7500    0.0000 C   0  0  0  0  0  0  0  0  0  0  0  0
    7.7331   -1.7500    0.0000 C   0  0  0  0  0  0  0  0  0  0  0  0
    8.5991    2.7500    0.0000 C   0  0  0  0  0  0  0  0  0  0  0  0
   10.3312   -0.2500    0.0000 C   0  0  0  0  0  0  0  0  0  0  0  0
    4.2690   -1.7500    0.0000 C   0  0  0  0  0  0  0  0  0  0  0  0
    6.8671    0.7500    0.0000 C   0  0  0  0  0  0  0  0  0  0  0  0
    7.7331   -0.7500    0.0000 C   0  0  0  0  0  0  0  0  0  0  0  0
    7.7331    2.2500    0.0000 C   0  0  0  0  0  0  0  0  0  0  0  0
    7.7331   -3.7500    0.0000 C   0  0  0  0  0  0  0  0  0  0  0  0
    6.0010   -3.7500    0.0000 C   0  0  0  0  0  0  0  0  0  0  0  0
   10.3312    3.7500    0.0000 C   0  0  0  0  0  0  0  0  0  0  0  0
   11.1972    2.2500    0.0000 C   0  0  0  0  0  0  0  0  0  0  0  0
   11.1972   -0.7500    0.0000 C   0  0  0  0  0  0  0  0  0  0  0  0
    3.4030   -2.2500    0.0000 C   0  0  0  0  0  0  0  0  0  0  0  0
   10.8681    3.0600    0.0000 H   0  0  0  0  0  0  0  0  0  0  0  0
    6.3301   -2.9400    0.0000 H   0  0  0  0  0  0  0  0  0  0  0  0
   10.9417    0.6423    0.0000 H   0  0  0  0  0  0  0  0  0  0  0  0
   10.5432    1.3326    0.0000 H   0  0  0  0  0  0  0  0  0  0  0  0
    4.7365   -2.7250    0.0000 H   0  0  0  0  0  0  0  0  0  0  0  0
    5.5335   -2.7250    0.0000 H   0  0  0  0  0  0  0  0  0  0  0  0
    8.5991    0.1300    0.0000 H   0  0  0  0  0  0  0  0  0  0  0  0
    5.4641   -0.4400    0.0000 H   0  0  0  0  0  0  0  0  0  0  0  0
    8.5991    3.3700    0.0000 H   0  0  0  0  0  0  0  0  0  0  0  0
    8.2700   -2.0600    0.0000 H   0  0  0  0  0  0  0  0  0  0  0  0
    9.7206   -0.1423    0.0000 H   0  0  0  0  0  0  0  0  0  0  0  0
   10.1191   -0.8326    0.0000 H   0  0  0  0  0  0  0  0  0  0  0  0
    4.6675   -1.2750    0.0000 H   0  0  0  0  0  0  0  0  0  0  0  0
    3.8705   -1.2750    0.0000 H   0  0  0  0  0  0  0  0  0  0  0  0
    7.1962    2.5600    0.0000 H   0  0  0  0  0  0  0  0  0  0  0  0
    8.2700   -0.4400    0.0000 H   0  0  0  0  0  0  0  0  0  0  0  0
    7.4231   -4.2869    0.0000 H   0  0  0  0  0  0  0  0  0  0  0  0
    8.2700   -4.0600    0.0000 H   0  0  0  0  0  0  0  0  0  0  0  0
   10.8872    1.7131    0.0000 H   0  0  0  0  0  0  0  0  0  0  0  0
   11.7341    1.9400    0.0000 H   0  0  0  0  0  0  0  0  0  0  0  0
   11.5072    2.7869    0.0000 H   0  0  0  0  0  0  0  0  0  0  0  0
   10.9512    3.7500    0.0000 H   0  0  0  0  0  0  0  0  0  0  0  0
   10.3312    4.3700    0.0000 H   0  0  0  0  0  0  0  0  0  0  0  0
    9.7112    3.7500    0.0000 H   0  0  0  0  0  0  0  0  0  0  0  0
    5.6910   -3.2131    0.0000 H   0  0  0  0  0  0  0  0  0  0  0  0
    5.4641   -4.0600    0.0000 H   0  0  0  0  0  0  0  0  0  0  0  0
    6.3110   -4.2869    0.0000 H   0  0  0  0  0  0  0  0  0  0  0  0
    8.0431   -3.2131    0.0000 H   0  0  0  0  0  0  0  0  0  0  0  0
   11.8078   -0.8577    0.0000 H   0  0  0  0  0  0  0  0  0  0  0  0
   11.4092   -0.1674    0.0000 H   0  0  0  0  0  0  0  0  0  0  0  0
    3.0044   -2.7250    0.0000 H   0  0  0  0  0  0  0  0  0  0  0  0
    3.8015   -2.7250    0.0000 H   0  0  0  0  0  0  0  0  0  0  0  0
   11.7341   -2.0600    0.0000 H   0  0  0  0  0  0  0  0  0  0  0  0
    2.0000   -2.0600    0.0000 H   0  0  0  0  0  0  0  0  0  0  0  0
  1 20  2  0  0  0  0 
  2 27  1  0  0  0  0 
  2 61  1  0  0  0  0 
  3 28  1  0  0  0  0 
  3 62  1  0  0  0  0 
  4  6  2  0  0  0  0 
  4  9  1  0  0  0  0 
  4 16  1  0  0  0  0 
  5  7  2  0  0  0  0 
  5  8  1  0  0  0  0 
  5 17  1  0  0  0  0 
  6 11  1  0  0  0  0 
  6 14  1  0  0  0  0 
  7 10  1  0  0  0  0 
  7 15  1  0  0  0  0 
  8 25  1  0  0  0  0 
  8 26  1  0  0  0  0 
  8 29  1  0  0  0  0 
  9 23  1  0  0  0  0 
  9 24  1  0  0  0  0 
  9 30  1  0  0  0  0 
 10 18  1  0  0  0  0 
 10 31  1  0  0  0  0 
 10 32  1  0  0  0  0 
 11 19  1  0  0  0  0 
 11 33  1  0  0  0  0 
 11 34  1  0  0  0  0 
 12 14  2  0  0  0  0 
 12 20  1  0  0  0  0 
 12 21  1  0  0  0  0 
 13 15  2  0  0  0  0 
 13 20  1  0  0  0  0 
 13 22  1  0  0  0  0 
 14 36  1  0  0  0  0 
 15 35  1  0  0  0  0 
 16 21  2  0  0  0  0 
 16 38  1  0  0  0  0 
 17 22  2  0  0  0  0 
 17 37  1  0  0  0  0 
 18 27  1  0  0  0  0 
 18 39  1  0  0  0  0 
 18 40  1  0  0  0  0 
 19 28  1  0  0  0  0 
 19 41  1  0  0  0  0 
 19 42  1  0  0  0  0 
 21 44  1  0  0  0  0 
 22 43  1  0  0  0  0 
 23 45  1  0  0  0  0 
 23 46  1  0  0  0  0 
 23 56  1  0  0  0  0 
 24 53  1  0  0  0  0 
 24 54  1  0  0  0  0 
 24 55  1  0  0  0  0 
 25 50  1  0  0  0  0 
 25 51  1  0  0  0  0 
 25 52  1  0  0  0  0 
 26 47  1  0  0  0  0 
 26 48  1  0  0  0  0 
 26 49  1  0  0  0  0 
 27 57  1  0  0  0  0 
 27 58  1  0  0  0  0 
 28 59  1  0  0  0  0 
 28 60  1  0  0  0  0 
M  END
> <cdk:Title>
54288463

> <cdk:Remark>
null

> <PUBCHEM_COMPOUND_CID>
54288463

> <PUBCHEM_COMPOUND_CANONICALIZED>
1

> <PUBCHEM_CACTVS_COMPLEXITY>
419

> <PUBCHEM_CACTVS_HBOND_ACCEPTOR>
3

> <PUBCHEM_CACTVS_HBOND_DONOR>
2

> <PUBCHEM_CACTVS_ROTATABLE_BOND>
10

> <PUBCHEM_CACTVS_SUBSKEYS>
AAADcfB4MAAAAAAAAAAAAAAAAAAAAAAAAAAwYAAAAAAAAAABQAAAGgAACAAADQSgmAIyAIAAAgCIAqBSAAACAAAkAAAIiAEAAMgIMDKAFRCAYQAkgAAIiYeIyPCOwAACAAAQAACAAAQAACAAAAAAAAAAAA==

> <PUBCHEM_IUPAC_OPENEYE_NAME>
bis[3-(3-hydroxypropyl)-4-isopropyl-phenyl]methanone

> <PUBCHEM_IUPAC_CAS_NAME>
bis[3-(3-hydroxypropyl)-4-propan-2-ylphenyl]methanone

> <PUBCHEM_IUPAC_NAME>
bis[3-(3-hydroxypropyl)-4-propan-2-ylphenyl]methanone

> <PUBCHEM_IUPAC_SYSTEMATIC_NAME>
bis[3-(3-oxidanylpropyl)-4-propan-2-yl-phenyl]methanone

> <PUBCHEM_IUPAC_TRADITIONAL_NAME>
bis[3-(3-hydroxypropyl)-4-isopropyl-phenyl]methanone

> <PUBCHEM_IUPAC_INCHI>
InChI=1S/C25H34O3/c1-17(2)23-11-9-21(15-19(23)7-5-13-26)25(28)22-10-12-24(18(3)4)20(16-22)8-6-14-27/h9-12,15-18,26-27H,5-8,13-14H2,1-4H3

> <PUBCHEM_IUPAC_INCHIKEY>
RVVJNYDZQXLYAZ-UHFFFAOYSA-N

> <PUBCHEM_XLOGP3_AA>
5.4

> <PUBCHEM_EXACT_MASS>
382.250795

> <PUBCHEM_MOLECULAR_FORMULA>
C25H34O3

> <PUBCHEM_MOLECULAR_WEIGHT>
382.53566

> <PUBCHEM_OPENEYE_CAN_SMILES>
CC(C)C1=C(C=C(C=C1)C(=O)C2=CC(=C(C=C2)C(C)C)CCCO)CCCO

> <PUBCHEM_OPENEYE_ISO_SMILES>
CC(C)C1=C(C=C(C=C1)C(=O)C2=CC(=C(C=C2)C(C)C)CCCO)CCCO

> <PUBCHEM_CACTVS_TPSA>
57.5

> <PUBCHEM_MONOISOTOPIC_WEIGHT>
382.250795

> <PUBCHEM_TOTAL_CHARGE>
0

> <PUBCHEM_HEAVY_ATOM_COUNT>
28

> <PUBCHEM_ATOM_DEF_STEREO_COUNT>
0

> <PUBCHEM_ATOM_UDEF_STEREO_COUNT>
0

> <PUBCHEM_BOND_DEF_STEREO_COUNT>
0

> <PUBCHEM_BOND_UDEF_STEREO_COUNT>
0

> <PUBCHEM_ISOTOPIC_ATOM_COUNT>
0

> <PUBCHEM_COMPONENT_COUNT>
1

> <PUBCHEM_CACTVS_TAUTO_COUNT>
14

> <PUBCHEM_COORDINATE_TYPE>
1

> <PUBCHEM_BONDANNOTATIONS>
12  14  8

$$$$
