7293924
  CDK     0104151054

 53 56  0  0  0  0  0  0  0  0999 V2000
    4.2320    3.1651    0.0000 Cl  0  0  0  0  0  0  0  0  0  0  0  0
    5.8198   -1.1081    0.0000 S   0  0  0  0  0  0  0  0  0  0  0  0
    5.5108    1.4610    0.0000 O   0  0  0  0  0  0  0  0  0  0  0  0
    3.7320   -1.1651    0.0000 N   0  0  0  0  0  0  0  0  0  0  0  0
    6.7709    0.2010    0.0000 N   0  0  0  0  0  0  0  0  0  0  0  0
    7.7171    0.5057    0.0000 N   0  0  0  0  0  0  0  0  0  0  0  0
    7.7171   -1.1038    0.0000 N   0  0  0  0  0  0  0  0  0  0  0  0
    4.5981   -1.6651    0.0000 C   0  0  0  0  0  0  0  0  0  0  0  0
    2.8660   -1.6651    0.0000 C   0  0  0  0  0  0  0  0  0  0  0  0
    4.5981   -2.6651    0.0000 C   0  0  2  0  0  0  0  0  0  0  0  0
    2.8660   -2.6651    0.0000 C   0  0  2  0  0  0  0  0  0  0  0  0
    3.7320   -3.1651    0.0000 C   0  0  0  0  0  0  0  0  0  0  0  0
    4.2320   -0.2990    0.0000 C   0  0  2  0  0  0  0  0  0  0  0  0
    5.4641   -3.1651    0.0000 C   0  0  0  0  0  0  0  0  0  0  0  0
    2.0000   -3.1651    0.0000 C   0  0  0  0  0  0  0  0  0  0  0  0
    5.2320   -0.2990    0.0000 C   0  0  0  0  0  0  0  0  0  0  0  0
    3.7320    0.5670    0.0000 C   0  0  0  0  0  0  0  0  0  0  0  0
    5.8198    0.5100    0.0000 C   0  0  0  0  0  0  0  0  0  0  0  0
    4.2320    1.4330    0.0000 C   0  0  0  0  0  0  0  0  0  0  0  0
    2.7320    0.5670    0.0000 C   0  0  0  0  0  0  0  0  0  0  0  0
    6.7709   -0.7990    0.0000 C   0  0  0  0  0  0  0  0  0  0  0  0
    3.7320    2.2990    0.0000 C   0  0  0  0  0  0  0  0  0  0  0  0
    2.2320    1.4330    0.0000 C   0  0  0  0  0  0  0  0  0  0  0  0
    2.7320    2.2990    0.0000 C   0  0  0  0  0  0  0  0  0  0  0  0
    8.3007   -0.2990    0.0000 C   0  0  0  0  0  0  0  0  0  0  0  0
    9.3007   -0.2990    0.0000 C   0  0  0  0  0  0  0  0  0  0  0  0
    9.8007   -1.1651    0.0000 C   0  0  0  0  0  0  0  0  0  0  0  0
    3.2320   -0.2990    0.0000 H   0  0  0  0  0  0  0  0  0  0  0  0
    5.2087   -1.7727    0.0000 H   0  0  0  0  0  0  0  0  0  0  0  0
    4.8101   -1.0824    0.0000 H   0  0  0  0  0  0  0  0  0  0  0  0
    2.6540   -1.0824    0.0000 H   0  0  0  0  0  0  0  0  0  0  0  0
    2.2554   -1.7727    0.0000 H   0  0  0  0  0  0  0  0  0  0  0  0
    4.5981   -3.2851    0.0000 H   0  0  0  0  0  0  0  0  0  0  0  0
    2.8660   -3.2851    0.0000 H   0  0  0  0  0  0  0  0  0  0  0  0
    3.3335   -3.6400    0.0000 H   0  0  0  0  0  0  0  0  0  0  0  0
    4.1306   -3.6400    0.0000 H   0  0  0  0  0  0  0  0  0  0  0  0
    4.5420   -0.8360    0.0000 H   0  0  0  0  0  0  0  0  0  0  0  0
    5.1541   -3.7020    0.0000 H   0  0  0  0  0  0  0  0  0  0  0  0
    6.0010   -3.4751    0.0000 H   0  0  0  0  0  0  0  0  0  0  0  0
    5.7741   -2.6281    0.0000 H   0  0  0  0  0  0  0  0  0  0  0  0
    1.6900   -2.6281    0.0000 H   0  0  0  0  0  0  0  0  0  0  0  0
    1.4631   -3.4751    0.0000 H   0  0  0  0  0  0  0  0  0  0  0  0
    2.3100   -3.7020    0.0000 H   0  0  0  0  0  0  0  0  0  0  0  0
    4.8520    1.4330    0.0000 H   0  0  0  0  0  0  0  0  0  0  0  0
    2.4220    0.0301    0.0000 H   0  0  0  0  0  0  0  0  0  0  0  0
    1.6120    1.4330    0.0000 H   0  0  0  0  0  0  0  0  0  0  0  0
    2.4220    2.8360    0.0000 H   0  0  0  0  0  0  0  0  0  0  0  0
    5.9257    1.9218    0.0000 H   0  0  0  0  0  0  0  0  0  0  0  0
    9.8833   -0.0870    0.0000 H   0  0  0  0  0  0  0  0  0  0  0  0
    9.1931    0.3115    0.0000 H   0  0  0  0  0  0  0  0  0  0  0  0
    9.2638   -1.4751    0.0000 H   0  0  0  0  0  0  0  0  0  0  0  0
   10.1107   -1.7020    0.0000 H   0  0  0  0  0  0  0  0  0  0  0  0
   10.3377   -0.8551    0.0000 H   0  0  0  0  0  0  0  0  0  0  0  0
  1 22  1  0  0  0  0 
  2 16  1  0  0  0  0 
  2 21  1  0  0  0  0 
  3 18  1  0  0  0  0 
  3 48  1  0  0  0  0 
  4  8  1  0  0  0  0 
  4  9  1  0  0  0  0 
 13  4  1  1  0  0  0 
  4 28  1  0  0  0  0 
  5  6  1  0  0  0  0 
  5 18  1  0  0  0  0 
  5 21  1  0  0  0  0 
  6 25  2  0  0  0  0 
  7 21  2  0  0  0  0 
  7 25  1  0  0  0  0 
  8 10  1  0  0  0  0 
  8 29  1  0  0  0  0 
  8 30  1  0  0  0  0 
  9 11  1  0  0  0  0 
  9 31  1  0  0  0  0 
  9 32  1  0  0  0  0 
 10 12  1  0  0  0  0 
 10 14  1  1  0  0  0 
 10 33  1  0  0  0  0 
 11 12  1  0  0  0  0 
 11 15  1  6  0  0  0 
 11 34  1  0  0  0  0 
 12 35  1  0  0  0  0 
 12 36  1  0  0  0  0 
 13 16  1  0  0  0  0 
 13 17  1  0  0  0  0 
 13 37  1  0  0  0  0 
 14 38  1  0  0  0  0 
 14 39  1  0  0  0  0 
 14 40  1  0  0  0  0 
 15 41  1  0  0  0  0 
 15 42  1  0  0  0  0 
 15 43  1  0  0  0  0 
 16 18  2  0  0  0  0 
 17 19  2  0  0  0  0 
 17 20  1  0  0  0  0 
 19 22  1  0  0  0  0 
 19 44  1  0  0  0  0 
 20 23  2  0  0  0  0 
 20 45  1  0  0  0  0 
 22 24  2  0  0  0  0 
 23 24  1  0  0  0  0 
 23 46  1  0  0  0  0 
 24 47  1  0  0  0  0 
 25 26  1  0  0  0  0 
 26 27  1  0  0  0  0 
 26 49  1  0  0  0  0 
 26 50  1  0  0  0  0 
 27 51  1  0  0  0  0 
 27 52  1  0  0  0  0 
 27 53  1  0  0  0  0 
M  CHG  1   4   1
M  END
> <cdk:Title>
7293924

> <cdk:Remark>
null

> <PUBCHEM_COMPOUND_CID>
7293924

> <PUBCHEM_COMPOUND_CANONICALIZED>
1

> <PUBCHEM_CACTVS_COMPLEXITY>
504

> <PUBCHEM_CACTVS_HBOND_ACCEPTOR>
4

> <PUBCHEM_CACTVS_HBOND_DONOR>
2

> <PUBCHEM_CACTVS_ROTATABLE_BOND>
4

> <PUBCHEM_CACTVS_SUBSKEYS>
AAADceB7oABEAAAAAAAAAAAAAAAAAWLAAAA8QAAAAAAWAAAB8AAAHgYYCAAADSrB2yQzlZfIEgimAiJiZACS9KthLbgdmIY8RoyIKCLj2xOE4AhumALIyCeQwKAOAAAAIAAAAAAAAABAAAAAAAAAAAAAAA==

> <PUBCHEM_IUPAC_OPENEYE_NAME>
5-[(S)-(3-chlorophenyl)-[(3S,5S)-3,5-dimethylpiperidin-1-ium-1-yl]methyl]-2-ethyl-thiazolo[3,2-b][1,2,4]triazol-6-ol

> <PUBCHEM_IUPAC_CAS_NAME>
5-[(S)-(3-chlorophenyl)-[(3S,5S)-3,5-dimethyl-1-piperidin-1-iumyl]methyl]-2-ethyl-6-thiazolo[3,2-b][1,2,4]triazolol

> <PUBCHEM_IUPAC_NAME>
5-[(S)-(3-chlorophenyl)-[(3S,5S)-3,5-dimethylpiperidin-1-ium-1-yl]methyl]-2-ethyl-[1,3]thiazolo[3,2-b][1,2,4]triazol-6-ol

> <PUBCHEM_IUPAC_SYSTEMATIC_NAME>
5-[(S)-(3-chlorophenyl)-[(3S,5S)-3,5-dimethylpiperidin-1-ium-1-yl]methyl]-2-ethyl-[1,3]thiazolo[3,2-b][1,2,4]triazol-6-ol

> <PUBCHEM_IUPAC_TRADITIONAL_NAME>
5-[(S)-(3-chlorophenyl)-[(3S,5S)-3,5-dimethylpiperidin-1-ium-1-yl]methyl]-2-ethyl-thiazolo[3,2-b][1,2,4]triazol-6-ol

> <PUBCHEM_IUPAC_INCHI>
InChI=1S/C20H25ClN4OS/c1-4-16-22-20-25(23-16)19(26)18(27-20)17(14-6-5-7-15(21)9-14)24-10-12(2)8-13(3)11-24/h5-7,9,12-13,17,26H,4,8,10-11H2,1-3H3/p+1/t12-,13-,17-/m0/s1

> <PUBCHEM_IUPAC_INCHIKEY>
KNQFVMFTIGUJOB-DCGLDWPTSA-O

> <PUBCHEM_XLOGP3_AA>
5.6

> <PUBCHEM_EXACT_MASS>
405.151585

> <PUBCHEM_MOLECULAR_FORMULA>
C20H26ClN4OS+

> <PUBCHEM_MOLECULAR_WEIGHT>
405.96464

> <PUBCHEM_OPENEYE_CAN_SMILES>
CCC1=NN2C(=C(SC2=N1)C(C3=CC(=CC=C3)Cl)[NH+]4CC(CC(C4)C)C)O

> <PUBCHEM_OPENEYE_ISO_SMILES>
CCC1=NN2C(=C(SC2=N1)[C@H](C3=CC(=CC=C3)Cl)[NH+]4C[C@H](C[C@@H](C4)C)C)O

> <PUBCHEM_CACTVS_TPSA>
83.1

> <PUBCHEM_MONOISOTOPIC_WEIGHT>
405.151585

> <PUBCHEM_TOTAL_CHARGE>
1

> <PUBCHEM_HEAVY_ATOM_COUNT>
27

> <PUBCHEM_ATOM_DEF_STEREO_COUNT>
3

> <PUBCHEM_ATOM_UDEF_STEREO_COUNT>
0

> <PUBCHEM_BOND_DEF_STEREO_COUNT>
0

> <PUBCHEM_BOND_UDEF_STEREO_COUNT>
0

> <PUBCHEM_ISOTOPIC_ATOM_COUNT>
0

> <PUBCHEM_COMPONENT_COUNT>
1

> <PUBCHEM_CACTVS_TAUTO_COUNT>
2

> <PUBCHEM_COORDINATE_TYPE>
1

> <PUBCHEM_BONDANNOTATIONS>
10  14  5

$$$$
