
  CDK     0224152114

 13 14  0  0  0  0  0  0  0  0999 V2000
    4.5981    1.7500    0.0000 N   0  0  0  0  0  0  0  0  0  0  0  0
    4.5981   -0.2500    0.0000 N   0  0  0  0  0  0  0  0  0  0  0  0
    5.4641    1.2500    0.0000 C   0  0  0  0  0  0  0  0  0  0  0  0
    3.7320    1.2500    0.0000 C   0  0  0  0  0  0  0  0  0  0  0  0
    3.7320    0.2500    0.0000 C   0  0  0  0  0  0  0  0  0  0  0  0
    5.4641    0.2500    0.0000 C   0  0  0  0  0  0  0  0  0  0  0  0
    4.5981    2.7500    0.0000 C   0  0  0  0  0  0  0  0  0  0  0  0
    5.4641    3.2500    0.0000 C   0  0  0  0  0  0  0  0  0  0  0  0
    6.3301    2.7500    0.0000 C   0  0  0  0  0  0  0  0  0  0  0  0
    5.4641    4.2500    0.0000 C   0  0  0  0  0  0  0  0  0  0  0  0
    7.1962    3.2500    0.0000 C   0  0  0  0  0  0  0  0  0  0  0  0
    6.3301    4.7500    0.0000 C   0  0  0  0  0  0  0  0  0  0  0  0
    7.1962    4.2500    0.0000 C   0  0  0  0  0  0  0  0  0  0  0  0
  1  3  1  0  0  0  0 
  1  4  1  0  0  0  0 
  1  7  1  0  0  0  0 
  2  5  1  0  0  0  0 
  2  6  1  0  0  0  0 
  3  6  1  0  0  0  0 
  4  5  1  0  0  0  0 
  7  8  1  0  0  0  0 
  8  9  1  0  0  0  0 
  8 10  1  0  0  0  0 
  9 11  1  0  0  0  0 
 10 12  1  0  0  0  0 
 11 13  1  0  0  0  0 
 12 13  1  0  0  0  0 
M  END
> <PUBCHEM_COMPOUND_CID>
48131770

$$$$

  CDK     0224152114

 13 14  0  0  0  0  0  0  0  0999 V2000
    3.7320    1.5020    0.0000 S   0  0  0  0  0  0  0  0  0  0  0  0
    4.7026    3.9965    0.0000 S   0  0  0  0  0  0  0  0  0  0  0  0
    3.7320    2.5020    0.0000 N   0  0  0  0  0  0  0  0  0  0  0  0
    5.5116    2.5953    0.0000 N   0  0  0  0  0  0  0  0  0  0  0  0
    3.7320    0.5020    0.0000 C   0  0  0  0  0  0  0  0  0  0  0  0
    2.8660    0.0020    0.0000 C   0  0  0  0  0  0  0  0  0  0  0  0
    4.5981    0.0020    0.0000 C   0  0  0  0  0  0  0  0  0  0  0  0
    3.7320   -1.4980    0.0000 C   0  0  0  0  0  0  0  0  0  0  0  0
    2.8660   -0.9980    0.0000 C   0  0  0  0  0  0  0  0  0  0  0  0
    4.5981   -0.9980    0.0000 C   0  0  0  0  0  0  0  0  0  0  0  0
    4.5981    3.0020    0.0000 C   0  0  0  0  0  0  0  0  0  0  0  0
    5.6808    4.2044    0.0000 C   0  0  0  0  0  0  0  0  0  0  0  0
    6.1808    3.3384    0.0000 C   0  0  0  0  0  0  0  0  0  0  0  0
  1  3  1  0  0  0  0 
  1  5  1  0  0  0  0 
  2 11  1  0  0  0  0 
  2 12  1  0  0  0  0 
  3 11  1  0  0  0  0 
  4 11  1  0  0  0  0 
  4 13  1  0  0  0  0 
  5  6  1  0  0  0  0 
  5  7  1  0  0  0  0 
  6  9  1  0  0  0  0 
  7 10  1  0  0  0  0 
  8  9  1  0  0  0  0 
  8 10  1  0  0  0  0 
 12 13  1  0  0  0  0 
M  END
> <PUBCHEM_COMPOUND_CID>
29050647

$$$$

  CDK     0224152114

 13 14  0  0  0  0  0  0  0  0999 V2000
    3.7320    2.0000    0.0000 C   0  0  0  0  0  0  0  0  0  0  0  0
    3.7320    1.0000    0.0000 C   0  0  0  0  0  0  0  0  0  0  0  0
    4.5981    2.5000    0.0000 C   0  0  0  0  0  0  0  0  0  0  0  0
    5.4641    2.0000    0.0000 C   0  0  0  0  0  0  0  0  0  0  0  0
    2.8660    0.5000    0.0000 C   0  0  0  0  0  0  0  0  0  0  0  0
    4.5981    3.5000    0.0000 C   0  0  0  0  0  0  0  0  0  0  0  0
    4.5981    0.5000    0.0000 C   0  0  0  0  0  0  0  0  0  0  0  0
    2.8660   -0.5000    0.0000 C   0  0  0  0  0  0  0  0  0  0  0  0
    6.3301    2.5000    0.0000 C   0  0  0  0  0  0  0  0  0  0  0  0
    4.5981   -0.5000    0.0000 C   0  0  0  0  0  0  0  0  0  0  0  0
    5.4641    4.0000    0.0000 C   0  0  0  0  0  0  0  0  0  0  0  0
    3.7320   -1.0000    0.0000 C   0  0  0  0  0  0  0  0  0  0  0  0
    6.3301    3.5000    0.0000 C   0  0  0  0  0  0  0  0  0  0  0  0
  1  2  1  0  0  0  0 
  1  3  1  0  0  0  0 
  2  5  1  0  0  0  0 
  2  7  1  0  0  0  0 
  3  4  1  0  0  0  0 
  3  6  1  0  0  0  0 
  4  9  1  0  0  0  0 
  5  8  1  0  0  0  0 
  6 11  1  0  0  0  0 
  7 10  1  0  0  0  0 
  8 12  1  0  0  0  0 
  9 13  1  0  0  0  0 
 10 12  1  0  0  0  0 
 11 13  1  0  0  0  0 
M  END
> <PUBCHEM_COMPOUND_CID>
22356779

$$$$

  CDK     0224152114

 13 14  0  0  0  0  0  0  0  0999 V2000
    5.0000    1.5955    0.0000 O   0  0  0  0  0  0  0  0  0  0  0  0
    6.7320    1.5955    0.0000 C   0  0  0  0  0  0  0  0  0  0  0  0
    5.8660    1.0955    0.0000 C   0  0  0  0  0  0  0  0  0  0  0  0
    5.8660    0.0955    0.0000 C   0  0  0  0  0  0  0  0  0  0  0  0
    7.5981    0.0955    0.0000 C   0  0  0  0  0  0  0  0  0  0  0  0
    7.5981    1.0955    0.0000 C   0  0  0  0  0  0  0  0  0  0  0  0
    6.7320   -0.4045    0.0000 C   0  0  0  0  0  0  0  0  0  0  0  0
    4.0000    1.5956    0.0000 C   0  0  0  0  0  0  0  0  0  0  0  0
    3.5000    2.4616    0.0000 C   0  0  0  0  0  0  0  0  0  0  0  0
    3.5000    0.7295    0.0000 C   0  0  0  0  0  0  0  0  0  0  0  0
    2.5000    2.4616    0.0000 C   0  0  0  0  0  0  0  0  0  0  0  0
    2.5000    0.7295    0.0000 C   0  0  0  0  0  0  0  0  0  0  0  0
    2.0000    1.5956    0.0000 C   0  0  0  0  0  0  0  0  0  0  0  0
  1  3  1  0  0  0  0 
  1  8  1  0  0  0  0 
  2  3  1  0  0  0  0 
  2  6  1  0  0  0  0 
  3  4  1  0  0  0  0 
  4  7  1  0  0  0  0 
  5  6  1  0  0  0  0 
  5  7  1  0  0  0  0 
  8  9  1  0  0  0  0 
  8 10  1  0  0  0  0 
  9 11  1  0  0  0  0 
 10 12  1  0  0  0  0 
 11 13  1  0  0  0  0 
 12 13  1  0  0  0  0 
M  END
> <PUBCHEM_COMPOUND_CID>
57247322

$$$$
