
  CDK     0224152114

 29 32  0  0  0  0  0  0  0  0999 V2000
    3.4782    1.9945    0.0000 S   0  0  0  0  0  0  0  0  0  0  0  0
    8.7788    1.0000    0.0000 N   0  0  0  0  0  0  0  0  0  0  0  0
    6.1808    0.5000    0.0000 N   0  0  0  0  0  0  0  0  0  0  0  0
    9.6448    0.5000    0.0000 C   0  0  0  0  0  0  0  0  0  0  0  0
    9.6448   -0.5000    0.0000 C   0  0  0  0  0  0  0  0  0  0  0  0
   10.5109    1.0000    0.0000 C   0  0  0  0  0  0  0  0  0  0  0  0
   10.5109   -1.0000    0.0000 C   0  0  0  0  0  0  0  0  0  0  0  0
   11.3769    0.5000    0.0000 C   0  0  0  0  0  0  0  0  0  0  0  0
   11.3769   -0.5000    0.0000 C   0  0  0  0  0  0  0  0  0  0  0  0
    7.9128    0.5000    0.0000 C   0  0  0  0  0  0  0  0  0  0  0  0
    7.0468    1.0000    0.0000 C   0  0  1  0  0  0  0  0  0  0  0  0
    7.0468    2.0000    0.0000 C   0  0  0  0  0  0  0  0  0  0  0  0
    6.1808   -0.5000    0.0000 C   0  0  0  0  0  0  0  0  0  0  0  0
    5.3147    1.0000    0.0000 C   0  0  0  0  0  0  0  0  0  0  0  0
    7.9128    2.5000    0.0000 C   0  0  0  0  0  0  0  0  0  0  0  0
    6.1808    2.5000    0.0000 C   0  0  0  0  0  0  0  0  0  0  0  0
    4.4487    0.5000    0.0000 C   0  0  0  0  0  0  0  0  0  0  0  0
    7.0468   -1.0000    0.0000 C   0  0  0  0  0  0  0  0  0  0  0  0
    5.3147   -1.0000    0.0000 C   0  0  0  0  0  0  0  0  0  0  0  0
    7.9128    3.5000    0.0000 C   0  0  0  0  0  0  0  0  0  0  0  0
    6.1808    3.5000    0.0000 C   0  0  0  0  0  0  0  0  0  0  0  0
    7.0468    4.0000    0.0000 C   0  0  0  0  0  0  0  0  0  0  0  0
    3.5827    1.0000    0.0000 C   0  0  0  0  0  0  0  0  0  0  0  0
    7.0468   -2.0000    0.0000 C   0  0  0  0  0  0  0  0  0  0  0  0
    5.3147   -2.0000    0.0000 C   0  0  0  0  0  0  0  0  0  0  0  0
    6.1808   -2.5000    0.0000 C   0  0  0  0  0  0  0  0  0  0  0  0
    2.6691    0.5933    0.0000 C   0  0  0  0  0  0  0  0  0  0  0  0
    2.0000    1.3364    0.0000 C   0  0  0  0  0  0  0  0  0  0  0  0
    2.5000    2.2024    0.0000 C   0  0  0  0  0  0  0  0  0  0  0  0
  1 23  1  0  0  0  0 
  1 29  1  0  0  0  0 
  2  4  1  0  0  0  0 
  2 10  1  0  0  0  0 
 11  3  1  6  0  0  0 
  3 13  1  0  0  0  0 
  3 14  1  0  0  0  0 
  4  5  1  0  0  0  0 
  4  6  1  0  0  0  0 
  5  7  1  0  0  0  0 
  6  8  1  0  0  0  0 
  7  9  1  0  0  0  0 
  8  9  1  0  0  0  0 
 10 11  1  0  0  0  0 
 11 12  1  0  0  0  0 
 12 15  1  0  0  0  0 
 12 16  1  0  0  0  0 
 13 18  1  0  0  0  0 
 13 19  1  0  0  0  0 
 14 17  1  0  0  0  0 
 15 20  1  0  0  0  0 
 16 21  1  0  0  0  0 
 17 23  1  0  0  0  0 
 18 24  1  0  0  0  0 
 19 25  1  0  0  0  0 
 20 22  1  0  0  0  0 
 21 22  1  0  0  0  0 
 23 27  1  0  0  0  0 
 24 26  1  0  0  0  0 
 25 26  1  0  0  0  0 
 27 28  1  0  0  0  0 
 28 29  1  0  0  0  0 
M  END
> <PUBCHEM_COMPOUND_CID>
25309802

$$$$
