40242343
  CDK     0224151638

 57 59  0  0  0  0  0  0  0  0999 V2000
    6.3301    2.2500    0.0000 S   0  0  0  0  0  0  0  0  0  0  0  0
    7.3301    2.2500    0.0000 O   0  0  0  0  0  0  0  0  0  0  0  0
    5.3301    2.2500    0.0000 O   0  0  0  0  0  0  0  0  0  0  0  0
    4.5981   -1.7500    0.0000 O   0  0  0  0  0  0  0  0  0  0  0  0
    4.5981   -3.7500    0.0000 N   0  0  0  0  0  0  0  0  0  0  0  0
    6.3301    3.2500    0.0000 N   0  0  0  0  0  0  0  0  0  0  0  0
    2.8660   -4.7500    0.0000 N   0  0  0  0  0  0  0  0  0  0  0  0
    6.3301   -1.7500    0.0000 N   0  0  0  0  0  0  0  0  0  0  0  0
    3.7320   -3.2500    0.0000 C   0  0  0  0  0  0  0  0  0  0  0  0
    4.5981   -4.7500    0.0000 C   0  0  0  0  0  0  0  0  0  0  0  0
    7.1962    3.7500    0.0000 C   0  0  0  0  0  0  0  0  0  0  0  0
    5.4641    3.7500    0.0000 C   0  0  0  0  0  0  0  0  0  0  0  0
    3.7320   -5.2500    0.0000 C   0  0  0  0  0  0  0  0  0  0  0  0
    2.8660   -3.7500    0.0000 C   0  0  0  0  0  0  0  0  0  0  0  0
    7.1962    4.7500    0.0000 C   0  0  0  0  0  0  0  0  0  0  0  0
    5.4641    4.7500    0.0000 C   0  0  0  0  0  0  0  0  0  0  0  0
    6.3301    5.2500    0.0000 C   0  0  0  0  0  0  0  0  0  0  0  0
    5.4641   -3.2500    0.0000 C   0  0  1  0  0  0  0  0  0  0  0  0
    6.3301   -3.7500    0.0000 C   0  0  0  0  0  0  0  0  0  0  0  0
    5.4641   -2.2500    0.0000 C   0  0  0  0  0  0  0  0  0  0  0  0
    2.0000   -5.2500    0.0000 C   0  0  0  0  0  0  0  0  0  0  0  0
    6.3301    1.2500    0.0000 C   0  0  0  0  0  0  0  0  0  0  0  0
    6.3301   -0.7500    0.0000 C   0  0  0  0  0  0  0  0  0  0  0  0
    5.4641    0.7500    0.0000 C   0  0  0  0  0  0  0  0  0  0  0  0
    7.1962    0.7500    0.0000 C   0  0  0  0  0  0  0  0  0  0  0  0
    5.4641   -0.2500    0.0000 C   0  0  0  0  0  0  0  0  0  0  0  0
    7.1962   -0.2500    0.0000 C   0  0  0  0  0  0  0  0  0  0  0  0
    4.1306   -2.7750    0.0000 H   0  0  0  0  0  0  0  0  0  0  0  0
    3.3335   -2.7750    0.0000 H   0  0  0  0  0  0  0  0  0  0  0  0
    4.8101   -5.3326    0.0000 H   0  0  0  0  0  0  0  0  0  0  0  0
    5.2087   -4.6423    0.0000 H   0  0  0  0  0  0  0  0  0  0  0  0
    7.4082    3.1674    0.0000 H   0  0  0  0  0  0  0  0  0  0  0  0
    7.8067    3.8577    0.0000 H   0  0  0  0  0  0  0  0  0  0  0  0
    4.8535    3.8577    0.0000 H   0  0  0  0  0  0  0  0  0  0  0  0
    5.2520    3.1674    0.0000 H   0  0  0  0  0  0  0  0  0  0  0  0
    3.3335   -5.7250    0.0000 H   0  0  0  0  0  0  0  0  0  0  0  0
    4.1306   -5.7250    0.0000 H   0  0  0  0  0  0  0  0  0  0  0  0
    2.6540   -3.1674    0.0000 H   0  0  0  0  0  0  0  0  0  0  0  0
    2.2554   -3.8577    0.0000 H   0  0  0  0  0  0  0  0  0  0  0  0
    7.8067    4.6423    0.0000 H   0  0  0  0  0  0  0  0  0  0  0  0
    7.4082    5.3326    0.0000 H   0  0  0  0  0  0  0  0  0  0  0  0
    5.2520    5.3326    0.0000 H   0  0  0  0  0  0  0  0  0  0  0  0
    4.8535    4.6423    0.0000 H   0  0  0  0  0  0  0  0  0  0  0  0
    6.7287    5.7250    0.0000 H   0  0  0  0  0  0  0  0  0  0  0  0
    5.9316    5.7250    0.0000 H   0  0  0  0  0  0  0  0  0  0  0  0
    5.4641   -3.8700    0.0000 H   0  0  0  0  0  0  0  0  0  0  0  0
    6.0201   -4.2869    0.0000 H   0  0  0  0  0  0  0  0  0  0  0  0
    6.8671   -4.0600    0.0000 H   0  0  0  0  0  0  0  0  0  0  0  0
    6.6401   -3.2131    0.0000 H   0  0  0  0  0  0  0  0  0  0  0  0
    1.6900   -4.7131    0.0000 H   0  0  0  0  0  0  0  0  0  0  0  0
    1.4631   -5.5600    0.0000 H   0  0  0  0  0  0  0  0  0  0  0  0
    2.3100   -5.7869    0.0000 H   0  0  0  0  0  0  0  0  0  0  0  0
    6.8671   -2.0600    0.0000 H   0  0  0  0  0  0  0  0  0  0  0  0
    4.9272    1.0600    0.0000 H   0  0  0  0  0  0  0  0  0  0  0  0
    7.7331    1.0600    0.0000 H   0  0  0  0  0  0  0  0  0  0  0  0
    4.9272   -0.5600    0.0000 H   0  0  0  0  0  0  0  0  0  0  0  0
    7.7331   -0.5600    0.0000 H   0  0  0  0  0  0  0  0  0  0  0  0
  1  2  2  0  0  0  0 
  1  3  2  0  0  0  0 
  1  6  1  0  0  0  0 
  1 22  1  0  0  0  0 
  4 20  2  0  0  0  0 
  5  9  1  0  0  0  0 
  5 10  1  0  0  0  0 
  5 18  1  0  0  0  0 
  6 11  1  0  0  0  0 
  6 12  1  0  0  0  0 
  7 13  1  0  0  0  0 
  7 14  1  0  0  0  0 
  7 21  1  0  0  0  0 
  8 20  1  0  0  0  0 
  8 23  1  0  0  0  0 
  8 53  1  0  0  0  0 
  9 14  1  0  0  0  0 
  9 28  1  0  0  0  0 
  9 29  1  0  0  0  0 
 10 13  1  0  0  0  0 
 10 30  1  0  0  0  0 
 10 31  1  0  0  0  0 
 11 15  1  0  0  0  0 
 11 32  1  0  0  0  0 
 11 33  1  0  0  0  0 
 12 16  1  0  0  0  0 
 12 34  1  0  0  0  0 
 12 35  1  0  0  0  0 
 13 36  1  0  0  0  0 
 13 37  1  0  0  0  0 
 14 38  1  0  0  0  0 
 14 39  1  0  0  0  0 
 15 17  1  0  0  0  0 
 15 40  1  0  0  0  0 
 15 41  1  0  0  0  0 
 16 17  1  0  0  0  0 
 16 42  1  0  0  0  0 
 16 43  1  0  0  0  0 
 17 44  1  0  0  0  0 
 17 45  1  0  0  0  0 
 18 19  1  6  0  0  0 
 18 20  1  0  0  0  0 
 18 46  1  0  0  0  0 
 19 47  1  0  0  0  0 
 19 48  1  0  0  0  0 
 19 49  1  0  0  0  0 
 21 50  1  0  0  0  0 
 21 51  1  0  0  0  0 
 21 52  1  0  0  0  0 
 22 24  2  0  0  0  0 
 22 25  1  0  0  0  0 
 23 26  2  0  0  0  0 
 23 27  1  0  0  0  0 
 24 26  1  0  0  0  0 
 24 54  1  0  0  0  0 
 25 27  2  0  0  0  0 
 25 55  1  0  0  0  0 
 26 56  1  0  0  0  0 
 27 57  1  0  0  0  0 
M  END
> <cdk:Title>
40242343

> <cdk:Remark>
null

> <PUBCHEM_COMPOUND_CID>
40242343

> <PUBCHEM_COMPOUND_CANONICALIZED>
1

> <PUBCHEM_CACTVS_COMPLEXITY>
585

> <PUBCHEM_CACTVS_HBOND_ACCEPTOR>
6

> <PUBCHEM_CACTVS_HBOND_DONOR>
1

> <PUBCHEM_CACTVS_ROTATABLE_BOND>
5

> <PUBCHEM_CACTVS_SUBSKEYS>
AAADceB7sABAAAAAAAAAAAAAAAAAAAAAAAA8WIAAAAAAAAABAAAAHgQQQAAACCjB0AQywYPAAAKIACVSUHDCABAhAgAIiBmIZIgIYCLAkbGUIAhglADIyAcQAAAAAAQAAAAAAAAACAAAAAAAAAAAAAAAAA==

> <PUBCHEM_IUPAC_OPENEYE_NAME>
(2S)-2-(4-methylpiperazin-1-yl)-N-[4-(1-piperidylsulfonyl)phenyl]propanamide

> <PUBCHEM_IUPAC_CAS_NAME>
(2S)-2-(4-methyl-1-piperazinyl)-N-[4-(1-piperidinylsulfonyl)phenyl]propanamide

> <PUBCHEM_IUPAC_NAME>
(2S)-2-(4-methylpiperazin-1-yl)-N-(4-piperidin-1-ylsulfonylphenyl)propanamide

> <PUBCHEM_IUPAC_SYSTEMATIC_NAME>
(2S)-2-(4-methylpiperazin-1-yl)-N-(4-piperidin-1-ylsulfonylphenyl)propanamide

> <PUBCHEM_IUPAC_TRADITIONAL_NAME>
(2S)-2-(4-methylpiperazino)-N-(4-piperidinosulfonylphenyl)propionamide

> <PUBCHEM_IUPAC_INCHI>
InChI=1S/C19H30N4O3S/c1-16(22-14-12-21(2)13-15-22)19(24)20-17-6-8-18(9-7-17)27(25,26)23-10-4-3-5-11-23/h6-9,16H,3-5,10-15H2,1-2H3,(H,20,24)/t16-/m0/s1

> <PUBCHEM_IUPAC_INCHIKEY>
WLGPVDPAJJCUPE-INIZCTEOSA-N

> <PUBCHEM_XLOGP3_AA>
1.4

> <PUBCHEM_EXACT_MASS>
394.203862

> <PUBCHEM_MOLECULAR_FORMULA>
C19H30N4O3S

> <PUBCHEM_MOLECULAR_WEIGHT>
394.5315

> <PUBCHEM_OPENEYE_CAN_SMILES>
CC(C(=O)NC1=CC=C(C=C1)S(=O)(=O)N2CCCCC2)N3CCN(CC3)C

> <PUBCHEM_OPENEYE_ISO_SMILES>
C[C@@H](C(=O)NC1=CC=C(C=C1)S(=O)(=O)N2CCCCC2)N3CCN(CC3)C

> <PUBCHEM_CACTVS_TPSA>
81.3

> <PUBCHEM_MONOISOTOPIC_WEIGHT>
394.203862

> <PUBCHEM_TOTAL_CHARGE>
0

> <PUBCHEM_HEAVY_ATOM_COUNT>
27

> <PUBCHEM_ATOM_DEF_STEREO_COUNT>
1

> <PUBCHEM_ATOM_UDEF_STEREO_COUNT>
0

> <PUBCHEM_BOND_DEF_STEREO_COUNT>
0

> <PUBCHEM_BOND_UDEF_STEREO_COUNT>
0

> <PUBCHEM_ISOTOPIC_ATOM_COUNT>
0

> <PUBCHEM_COMPONENT_COUNT>
1

> <PUBCHEM_CACTVS_TAUTO_COUNT>
3

> <PUBCHEM_COORDINATE_TYPE>
1

> <PUBCHEM_BONDANNOTATIONS>
18  19  6

$$$$
