
  CDK     0202151413

 31 34  0  0  0  0  0  0  0  0999 V2000
    8.9282    0.7944    0.0000 Cl  0  0  0  0  0  0  0  0  0  0  0  0
    6.3301    2.2944    0.0000 Cl  0  0  0  0  0  0  0  0  0  0  0  0
    9.7777    1.7553    0.0000 O   0  0  0  0  0  0  0  0  0  0  0  0
    7.1991    3.7447    0.0000 O   0  0  0  0  0  0  0  0  0  0  0  0
    8.9621   -1.7222    0.0000 O   0  0  0  0  0  0  0  0  0  0  0  0
    5.9641    3.6604    0.0000 O   0  0  0  0  0  0  0  0  0  0  0  0
    4.5981    0.2944    0.0000 O   0  0  0  0  0  0  0  0  0  0  0  0
    8.3941    2.8693    0.0000 N   0  0  0  0  0  0  0  0  0  0  0  0
    7.5706   -2.8848    0.0000 N   0  0  0  0  0  0  0  0  0  0  0  0
    7.1962   -0.2056    0.0000 C   0  0  3  0  0  0  0  0  0  0  0  0
    7.2122   -1.2471    0.0000 C   0  0  3  0  0  0  0  0  0  0  0  0
    8.0622    1.2944    0.0000 C   0  0  3  0  0  0  0  0  0  0  0  0
    7.1962    1.7944    0.0000 C   0  0  3  0  0  0  0  0  0  0  0  0
    8.0622    0.2944    0.0000 C   0  0  0  0  0  0  0  0  0  0  0  0
    6.3301    1.2944    0.0000 C   0  0  3  0  0  0  0  0  0  0  0  0
    6.3301    0.2944    0.0000 C   0  0  0  0  0  0  0  0  0  0  0  0
    6.3142   -1.7748    0.0000 C   0  0  3  0  0  0  0  0  0  0  0  0
    5.4121   -1.2540    0.0000 C   0  0  0  0  0  0  0  0  0  0  0  0
    5.4201   -0.2124    0.0000 C   0  0  0  0  0  0  0  0  0  0  0  0
    8.7992    1.9615    0.0000 C   0  0  0  0  0  0  0  0  0  0  0  0
    7.4054    2.7662    0.0000 C   0  0  0  0  0  0  0  0  0  0  0  0
    7.9852   -1.9360    0.0000 C   0  0  0  0  0  0  0  0  0  0  0  0
    6.5399   -2.7854    0.0000 C   0  0  0  0  0  0  0  0  0  0  0  0
    5.4641    1.7944    0.0000 C   0  0  0  0  0  0  0  0  0  0  0  0
    5.4641    2.7944    0.0000 C   0  0  0  0  0  0  0  0  0  0  0  0
    4.5981    1.2944    0.0000 C   0  0  0  0  0  0  0  0  0  0  0  0
    8.8941    3.7353    0.0000 C   0  0  0  0  0  0  0  0  0  0  0  0
    4.5981    3.2944    0.0000 C   0  0  0  0  0  0  0  0  0  0  0  0
    3.7320    1.7944    0.0000 C   0  0  0  0  0  0  0  0  0  0  0  0
    9.8941    3.7353    0.0000 C   0  0  0  0  0  0  0  0  0  0  0  0
    8.3941    4.6013    0.0000 C   0  0  0  0  0  0  0  0  0  0  0  0
  1 12  1  0  0  0  0 
  2 13  1  0  0  0  0 
  3 20  1  0  0  0  0 
  4 21  1  0  0  0  0 
  5 22  1  0  0  0  0 
  6 25  1  0  0  0  0 
  7 26  1  0  0  0  0 
  8 20  1  0  0  0  0 
  8 21  1  0  0  0  0 
  8 27  1  0  0  0  0 
  9 22  1  0  0  0  0 
  9 23  1  0  0  0  0 
 10 11  1  0  0  0  0 
 10 14  1  0  0  0  0 
 10 16  1  0  0  0  0 
 11 17  1  0  0  0  0 
 11 22  1  0  0  0  0 
 12 13  1  0  0  0  0 
 12 14  1  0  0  0  0 
 12 20  1  0  0  0  0 
 13 15  1  0  0  0  0 
 13 21  1  0  0  0  0 
 15 16  1  0  0  0  0 
 15 24  1  0  0  0  0 
 16 19  1  0  0  0  0 
 17 18  1  0  0  0  0 
 17 23  1  0  0  0  0 
 18 19  1  0  0  0  0 
 24 25  1  0  0  0  0 
 24 26  1  0  0  0  0 
 25 28  1  0  0  0  0 
 26 29  1  0  0  0  0 
 27 30  1  0  0  0  0 
 27 31  1  0  0  0  0 
M  END
> <PUBCHEM_COMPOUND_CID>
3437639

$$$$
