30371023
  CDK     0202151413

 39 41  0  0  0  0  0  0  0  0999 V2000
   14.8600   -1.2430    0.0000 Br  0  0  0  0  0  0  0  0  0  0  0  0
    7.2764    1.2938    0.0000 S   0  0  0  0  0  0  0  0  0  0  0  0
   11.8600    0.4890    0.0000 F   0  0  0  0  0  0  0  0  0  0  0  0
   10.8600   -1.2430    0.0000 O   0  0  0  0  0  0  0  0  0  0  0  0
    8.8600   -1.2430    0.0000 O   0  0  0  0  0  0  0  0  0  0  0  0
    2.8660   -0.0110    0.0000 O   0  0  0  0  0  0  0  0  0  0  0  0
    7.2764   -0.3157    0.0000 N   0  0  0  0  0  0  0  0  0  0  0  0
    8.8600    0.4890    0.0000 N   0  0  0  0  0  0  0  0  0  0  0  0
    3.7320    1.4890    0.0000 N   0  0  0  0  0  0  0  0  0  0  0  0
    6.3301    0.9890    0.0000 C   0  0  0  0  0  0  0  0  0  0  0  0
    6.3301   -0.0110    0.0000 C   0  0  0  0  0  0  0  0  0  0  0  0
    4.5981    0.9890    0.0000 C   0  0  0  0  0  0  0  0  0  0  0  0
    5.4641    1.4890    0.0000 C   0  0  0  0  0  0  0  0  0  0  0  0
    5.4641   -0.5110    0.0000 C   0  0  0  0  0  0  0  0  0  0  0  0
    7.8600    0.4890    0.0000 C   0  0  0  0  0  0  0  0  0  0  0  0
    4.5981   -0.0110    0.0000 C   0  0  0  0  0  0  0  0  0  0  0  0
   10.3600   -0.3770    0.0000 C   0  0  0  0  0  0  0  0  0  0  0  0
    9.3600   -0.3770    0.0000 C   0  0  0  0  0  0  0  0  0  0  0  0
   11.8600   -1.2430    0.0000 C   0  0  0  0  0  0  0  0  0  0  0  0
    2.8660    0.9890    0.0000 C   0  0  0  0  0  0  0  0  0  0  0  0
   12.3600   -0.3770    0.0000 C   0  0  0  0  0  0  0  0  0  0  0  0
   12.3600   -2.1090    0.0000 C   0  0  0  0  0  0  0  0  0  0  0  0
   13.3600   -0.3770    0.0000 C   0  0  0  0  0  0  0  0  0  0  0  0
   13.3600   -2.1090    0.0000 C   0  0  0  0  0  0  0  0  0  0  0  0
   13.8600   -1.2430    0.0000 C   0  0  0  0  0  0  0  0  0  0  0  0
    2.0000    1.4890    0.0000 C   0  0  0  0  0  0  0  0  0  0  0  0
    5.4641    2.1090    0.0000 H   0  0  0  0  0  0  0  0  0  0  0  0
    5.4641   -1.1310    0.0000 H   0  0  0  0  0  0  0  0  0  0  0  0
    4.0611   -0.3210    0.0000 H   0  0  0  0  0  0  0  0  0  0  0  0
    9.1700    1.0260    0.0000 H   0  0  0  0  0  0  0  0  0  0  0  0
    3.7320    2.1090    0.0000 H   0  0  0  0  0  0  0  0  0  0  0  0
   10.9426   -0.1649    0.0000 H   0  0  0  0  0  0  0  0  0  0  0  0
   10.2523    0.2336    0.0000 H   0  0  0  0  0  0  0  0  0  0  0  0
   12.0500   -2.6460    0.0000 H   0  0  0  0  0  0  0  0  0  0  0  0
   13.6700    0.1599    0.0000 H   0  0  0  0  0  0  0  0  0  0  0  0
   13.6700   -2.6460    0.0000 H   0  0  0  0  0  0  0  0  0  0  0  0
    2.3100    2.0260    0.0000 H   0  0  0  0  0  0  0  0  0  0  0  0
    1.4631    1.7990    0.0000 H   0  0  0  0  0  0  0  0  0  0  0  0
    1.6900    0.9521    0.0000 H   0  0  0  0  0  0  0  0  0  0  0  0
  1 25  1  0  0  0  0 
  2 10  1  0  0  0  0 
  2 15  1  0  0  0  0 
  3 21  1  0  0  0  0 
  4 17  1  0  0  0  0 
  4 19  1  0  0  0  0 
  5 18  2  0  0  0  0 
  6 20  2  0  0  0  0 
  7 11  1  0  0  0  0 
  7 15  2  0  0  0  0 
  8 15  1  0  0  0  0 
  8 18  1  0  0  0  0 
  8 30  1  0  0  0  0 
  9 12  1  0  0  0  0 
  9 20  1  0  0  0  0 
  9 31  1  0  0  0  0 
 10 11  2  0  0  0  0 
 10 13  1  0  0  0  0 
 11 14  1  0  0  0  0 
 12 13  2  0  0  0  0 
 12 16  1  0  0  0  0 
 13 27  1  0  0  0  0 
 14 16  2  0  0  0  0 
 14 28  1  0  0  0  0 
 16 29  1  0  0  0  0 
 17 18  1  0  0  0  0 
 17 32  1  0  0  0  0 
 17 33  1  0  0  0  0 
 19 21  2  0  0  0  0 
 19 22  1  0  0  0  0 
 20 26  1  0  0  0  0 
 21 23  1  0  0  0  0 
 22 24  2  0  0  0  0 
 22 34  1  0  0  0  0 
 23 25  2  0  0  0  0 
 23 35  1  0  0  0  0 
 24 25  1  0  0  0  0 
 24 36  1  0  0  0  0 
 26 37  1  0  0  0  0 
 26 38  1  0  0  0  0 
 26 39  1  0  0  0  0 
M  END
> <cdk:Title>
30371023

> <cdk:Remark>
null

> <PUBCHEM_COMPOUND_CID>
30371023

> <PUBCHEM_COMPOUND_CANONICALIZED>
1

> <PUBCHEM_CACTVS_COMPLEXITY>
530

> <PUBCHEM_CACTVS_HBOND_ACCEPTOR>
6

> <PUBCHEM_CACTVS_HBOND_DONOR>
2

> <PUBCHEM_CACTVS_ROTATABLE_BOND>
5

> <PUBCHEM_CACTVS_SUBSKEYS>
AAADccB7MQBAEAAAAAAAAAAAAAAAAWAAAAAwYAAAAAAAAFgB9AAAHwRQAAABqAyh1goz17LIFAisASVydAKD+KlhKj1JmDx2bLiOJqLkuZ+HOCzs1RPY6jeQQAAAABCAACAAAQAAIQAAQAACAAAAAAAAAA==

> <PUBCHEM_IUPAC_OPENEYE_NAME>
N-(6-acetamido-1,3-benzothiazol-2-yl)-2-(4-bromo-2-fluoro-phenoxy)acetamide

> <PUBCHEM_IUPAC_CAS_NAME>
N-(6-acetamido-1,3-benzothiazol-2-yl)-2-(4-bromo-2-fluorophenoxy)acetamide

> <PUBCHEM_IUPAC_NAME>
N-(6-acetamido-1,3-benzothiazol-2-yl)-2-(4-bromo-2-fluorophenoxy)acetamide

> <PUBCHEM_IUPAC_SYSTEMATIC_NAME>
N-(6-acetamido-1,3-benzothiazol-2-yl)-2-(4-bromanyl-2-fluoranyl-phenoxy)ethanamide

> <PUBCHEM_IUPAC_TRADITIONAL_NAME>
N-(6-acetamido-1,3-benzothiazol-2-yl)-2-(4-bromo-2-fluoro-phenoxy)acetamide

> <PUBCHEM_IUPAC_INCHI>
InChI=1S/C17H13BrFN3O3S/c1-9(23)20-11-3-4-13-15(7-11)26-17(21-13)22-16(24)8-25-14-5-2-10(18)6-12(14)19/h2-7H,8H2,1H3,(H,20,23)(H,21,22,24)

> <PUBCHEM_IUPAC_INCHIKEY>
FVMNPVZIPHGXMK-UHFFFAOYSA-N

> <PUBCHEM_XLOGP3_AA>
3.6

> <PUBCHEM_EXACT_MASS>
436.984503

> <PUBCHEM_MOLECULAR_FORMULA>
C17H13BrFN3O3S

> <PUBCHEM_MOLECULAR_WEIGHT>
438.270823

> <PUBCHEM_OPENEYE_CAN_SMILES>
CC(=O)NC1=CC2=C(C=C1)N=C(S2)NC(=O)COC3=C(C=C(C=C3)Br)F

> <PUBCHEM_OPENEYE_ISO_SMILES>
CC(=O)NC1=CC2=C(C=C1)N=C(S2)NC(=O)COC3=C(C=C(C=C3)Br)F

> <PUBCHEM_CACTVS_TPSA>
109

> <PUBCHEM_MONOISOTOPIC_WEIGHT>
436.984503

> <PUBCHEM_TOTAL_CHARGE>
0

> <PUBCHEM_HEAVY_ATOM_COUNT>
26

> <PUBCHEM_ATOM_DEF_STEREO_COUNT>
0

> <PUBCHEM_ATOM_UDEF_STEREO_COUNT>
0

> <PUBCHEM_BOND_DEF_STEREO_COUNT>
0

> <PUBCHEM_BOND_UDEF_STEREO_COUNT>
0

> <PUBCHEM_ISOTOPIC_ATOM_COUNT>
0

> <PUBCHEM_COMPONENT_COUNT>
1

> <PUBCHEM_CACTVS_TAUTO_COUNT>
15

> <PUBCHEM_COORDINATE_TYPE>
1

> <PUBCHEM_BONDANNOTATIONS>
10  11  8

$$$$
