47545300
  CDK     0104150955

 46 46  0  0  0  0  0  0  0  0999 V2000
    4.3660    2.2320    0.0000 O   0  0  0  0  0  0  0  0  0  0  0  0
    5.8660   -0.3660    0.0000 O   0  0  0  0  0  0  0  0  0  0  0  0
    2.8660    1.3660    0.0000 O   0  0  0  0  0  0  0  0  0  0  0  0
    7.3660   -1.2320    0.0000 O   0  0  0  0  0  0  0  0  0  0  0  0
    3.8660   -0.3660    0.0000 N   0  0  3  0  0  0  0  0  0  0  0  0
    5.8660   -2.0981    0.0000 N   0  0  0  0  0  0  0  0  0  0  0  0
    7.3660   -2.9641    0.0000 N   0  0  0  0  0  0  0  0  0  0  0  0
    2.8660   -0.3660    0.0000 C   0  0  0  0  0  0  0  0  0  0  0  0
    2.0000   -0.8660    0.0000 C   0  0  0  0  0  0  0  0  0  0  0  0
    2.0000    0.1340    0.0000 C   0  0  0  0  0  0  0  0  0  0  0  0
    4.3660   -1.2320    0.0000 C   0  0  0  0  0  0  0  0  0  0  0  0
    4.3660    0.5000    0.0000 C   0  0  0  0  0  0  0  0  0  0  0  0
    5.3660   -1.2320    0.0000 C   0  0  0  0  0  0  0  0  0  0  0  0
    3.8660    1.3660    0.0000 C   0  0  0  0  0  0  0  0  0  0  0  0
    8.3660   -2.9641    0.0000 C   0  0  0  0  0  0  0  0  0  0  0  0
    6.8660   -2.0981    0.0000 C   0  0  0  0  0  0  0  0  0  0  0  0
    9.3660   -2.9641    0.0000 C   0  0  0  0  0  0  0  0  0  0  0  0
    8.3660   -3.9641    0.0000 C   0  0  0  0  0  0  0  0  0  0  0  0
    8.3660   -1.9641    0.0000 C   0  0  0  0  0  0  0  0  0  0  0  0
    3.8660    3.0981    0.0000 C   0  0  0  0  0  0  0  0  0  0  0  0
    4.3660    3.9641    0.0000 C   0  0  0  0  0  0  0  0  0  0  0  0
    3.0265   -0.9649    0.0000 H   0  0  0  0  0  0  0  0  0  0  0  0
    1.3894   -0.9737    0.0000 H   0  0  0  0  0  0  0  0  0  0  0  0
    2.2120   -1.4486    0.0000 H   0  0  0  0  0  0  0  0  0  0  0  0
    2.2120    0.7166    0.0000 H   0  0  0  0  0  0  0  0  0  0  0  0
    1.3894    0.2416    0.0000 H   0  0  0  0  0  0  0  0  0  0  0  0
    3.7834   -1.4441    0.0000 H   0  0  0  0  0  0  0  0  0  0  0  0
    4.4737   -1.8426    0.0000 H   0  0  0  0  0  0  0  0  0  0  0  0
    4.8410    0.1015    0.0000 H   0  0  0  0  0  0  0  0  0  0  0  0
    4.8410    0.8985    0.0000 H   0  0  0  0  0  0  0  0  0  0  0  0
    5.5560   -2.6350    0.0000 H   0  0  0  0  0  0  0  0  0  0  0  0
    7.0560   -3.5010    0.0000 H   0  0  0  0  0  0  0  0  0  0  0  0
    8.9860   -1.9641    0.0000 H   0  0  0  0  0  0  0  0  0  0  0  0
    8.3660   -1.3441    0.0000 H   0  0  0  0  0  0  0  0  0  0  0  0
    7.7460   -1.9641    0.0000 H   0  0  0  0  0  0  0  0  0  0  0  0
    7.7460   -3.9641    0.0000 H   0  0  0  0  0  0  0  0  0  0  0  0
    8.3660   -4.5841    0.0000 H   0  0  0  0  0  0  0  0  0  0  0  0
    8.9860   -3.9641    0.0000 H   0  0  0  0  0  0  0  0  0  0  0  0
    9.3660   -3.5841    0.0000 H   0  0  0  0  0  0  0  0  0  0  0  0
    9.9860   -2.9641    0.0000 H   0  0  0  0  0  0  0  0  0  0  0  0
    9.3660   -2.3441    0.0000 H   0  0  0  0  0  0  0  0  0  0  0  0
    3.3911    3.4966    0.0000 H   0  0  0  0  0  0  0  0  0  0  0  0
    3.3911    2.6996    0.0000 H   0  0  0  0  0  0  0  0  0  0  0  0
    4.9030    3.6541    0.0000 H   0  0  0  0  0  0  0  0  0  0  0  0
    4.6760    4.5010    0.0000 H   0  0  0  0  0  0  0  0  0  0  0  0
    3.8291    4.2741    0.0000 H   0  0  0  0  0  0  0  0  0  0  0  0
  1 14  1  0  0  0  0 
  1 20  1  0  0  0  0 
  2 13  2  0  0  0  0 
  3 14  2  0  0  0  0 
  4 16  2  0  0  0  0 
  5  8  1  0  0  0  0 
  5 11  1  0  0  0  0 
  5 12  1  0  0  0  0 
  6 13  1  0  0  0  0 
  6 16  1  0  0  0  0 
  6 31  1  0  0  0  0 
  7 15  1  0  0  0  0 
  7 16  1  0  0  0  0 
  7 32  1  0  0  0  0 
  8  9  1  0  0  0  0 
  8 10  1  0  0  0  0 
  8 22  1  0  0  0  0 
  9 10  1  0  0  0  0 
  9 23  1  0  0  0  0 
  9 24  1  0  0  0  0 
 10 25  1  0  0  0  0 
 10 26  1  0  0  0  0 
 11 13  1  0  0  0  0 
 11 27  1  0  0  0  0 
 11 28  1  0  0  0  0 
 12 14  1  0  0  0  0 
 12 29  1  0  0  0  0 
 12 30  1  0  0  0  0 
 15 17  1  0  0  0  0 
 15 18  1  0  0  0  0 
 15 19  1  0  0  0  0 
 17 39  1  0  0  0  0 
 17 40  1  0  0  0  0 
 17 41  1  0  0  0  0 
 18 36  1  0  0  0  0 
 18 37  1  0  0  0  0 
 18 38  1  0  0  0  0 
 19 33  1  0  0  0  0 
 19 34  1  0  0  0  0 
 19 35  1  0  0  0  0 
 20 21  1  0  0  0  0 
 20 42  1  0  0  0  0 
 20 43  1  0  0  0  0 
 21 44  1  0  0  0  0 
 21 45  1  0  0  0  0 
 21 46  1  0  0  0  0 
M  END
> <cdk:Title>
47545300

> <cdk:Remark>
null

> <PUBCHEM_COMPOUND_CID>
47545300

> <PUBCHEM_COMPOUND_CANONICALIZED>
1

> <PUBCHEM_CACTVS_COMPLEXITY>
400

> <PUBCHEM_CACTVS_HBOND_ACCEPTOR>
5

> <PUBCHEM_CACTVS_HBOND_DONOR>
2

> <PUBCHEM_CACTVS_ROTATABLE_BOND>
8

> <PUBCHEM_CACTVS_SUBSKEYS>
AAADceBzOAAAAAAAAAAAAAAAGAAAAAAAAAAAAAAAAAAAAAAAAAAAHgAQAAAADKjhgAYDCAPABAAIAAGQGAAAAAAAAAAAAACIAACCQAAAACAXAAAIFSKQAAAAAAAAAAAAAAAAAAAAAAAAAAAAAAAAAAAAAA==

> <PUBCHEM_IUPAC_OPENEYE_NAME>
ethyl 2-[[2-(tert-butylcarbamoylamino)-2-oxo-ethyl]-cyclopropyl-amino]acetate

> <PUBCHEM_IUPAC_CAS_NAME>
2-[[2-[[(tert-butylamino)-oxomethyl]amino]-2-oxoethyl]-cyclopropylamino]acetic acid ethyl ester

> <PUBCHEM_IUPAC_NAME>
ethyl 2-[[2-(tert-butylcarbamoylamino)-2-oxoethyl]-cyclopropylamino]acetate

> <PUBCHEM_IUPAC_SYSTEMATIC_NAME>
ethyl 2-[[2-(tert-butylcarbamoylamino)-2-oxidanylidene-ethyl]-cyclopropyl-amino]ethanoate

> <PUBCHEM_IUPAC_TRADITIONAL_NAME>
2-[[2-(tert-butylcarbamoylamino)-2-keto-ethyl]-cyclopropyl-amino]acetic acid ethyl ester

> <PUBCHEM_IUPAC_INCHI>
InChI=1S/C14H25N3O4/c1-5-21-12(19)9-17(10-6-7-10)8-11(18)15-13(20)16-14(2,3)4/h10H,5-9H2,1-4H3,(H2,15,16,18,20)

> <PUBCHEM_IUPAC_INCHIKEY>
OQQMXWKTKNZWJO-UHFFFAOYSA-N

> <PUBCHEM_XLOGP3_AA>
1.6

> <PUBCHEM_EXACT_MASS>
299.184506

> <PUBCHEM_MOLECULAR_FORMULA>
C14H25N3O4

> <PUBCHEM_MOLECULAR_WEIGHT>
299.366

> <PUBCHEM_OPENEYE_CAN_SMILES>
CCOC(=O)CN(CC(=O)NC(=O)NC(C)(C)C)C1CC1

> <PUBCHEM_OPENEYE_ISO_SMILES>
CCOC(=O)CN(CC(=O)NC(=O)NC(C)(C)C)C1CC1

> <PUBCHEM_CACTVS_TPSA>
87.7

> <PUBCHEM_MONOISOTOPIC_WEIGHT>
299.184506

> <PUBCHEM_TOTAL_CHARGE>
0

> <PUBCHEM_HEAVY_ATOM_COUNT>
21

> <PUBCHEM_ATOM_DEF_STEREO_COUNT>
0

> <PUBCHEM_ATOM_UDEF_STEREO_COUNT>
0

> <PUBCHEM_BOND_DEF_STEREO_COUNT>
0

> <PUBCHEM_BOND_UDEF_STEREO_COUNT>
0

> <PUBCHEM_ISOTOPIC_ATOM_COUNT>
0

> <PUBCHEM_COMPONENT_COUNT>
1

> <PUBCHEM_CACTVS_TAUTO_COUNT>
5

> <PUBCHEM_COORDINATE_TYPE>
1

$$$$
