
  CDK     0224151638

 19 21  0  0  0  0  0  0  0  0999 V2000
    9.8222   -0.3020    0.0000 O   0  0  0  0  0  0  0  0  0  0  0  0
    9.8222    1.7673    0.0000 O   0  0  0  0  0  0  0  0  0  0  0  0
    5.4641    0.2327    0.0000 N   0  0  0  0  0  0  0  0  0  0  0  0
    6.3301   -0.2673    0.0000 C   0  0  2  0  0  0  0  0  0  0  0  0
    7.1962    0.2327    0.0000 C   0  0  0  0  0  0  0  0  0  0  0  0
    4.5981   -0.2673    0.0000 C   0  0  0  0  0  0  0  0  0  0  0  0
    8.0622   -0.2673    0.0000 C   0  0  0  0  0  0  0  0  0  0  0  0
    7.1962    1.2327    0.0000 C   0  0  0  0  0  0  0  0  0  0  0  0
    8.9282    0.2327    0.0000 C   0  0  0  0  0  0  0  0  0  0  0  0
    8.9282    1.2327    0.0000 C   0  0  0  0  0  0  0  0  0  0  0  0
    8.0622    1.7327    0.0000 C   0  0  0  0  0  0  0  0  0  0  0  0
    3.7321    0.2327    0.0000 C   0  0  0  0  0  0  0  0  0  0  0  0
   10.7282    0.2119    0.0000 C   0  0  0  0  0  0  0  0  0  0  0  0
   10.7282    1.2535    0.0000 C   0  0  0  0  0  0  0  0  0  0  0  0
    3.7321    1.2327    0.0000 C   0  0  0  0  0  0  0  0  0  0  0  0
    2.8660   -0.2673    0.0000 C   0  0  0  0  0  0  0  0  0  0  0  0
    2.8660    1.7327    0.0000 C   0  0  0  0  0  0  0  0  0  0  0  0
    2.0000    0.2327    0.0000 C   0  0  0  0  0  0  0  0  0  0  0  0
    2.0000    1.2327    0.0000 C   0  0  0  0  0  0  0  0  0  0  0  0
  1  9  1  0  0  0  0 
  1 13  1  0  0  0  0 
  2 10  1  0  0  0  0 
  2 14  1  0  0  0  0 
  4  3  1  1  0  0  0 
  3  6  1  0  0  0  0 
  4  5  1  0  0  0  0 
  5  7  1  0  0  0  0 
  5  8  1  0  0  0  0 
  6 12  1  0  0  0  0 
  7  9  1  0  0  0  0 
  8 11  1  0  0  0  0 
  9 10  1  0  0  0  0 
 10 11  1  0  0  0  0 
 12 15  1  0  0  0  0 
 12 16  1  0  0  0  0 
 13 14  1  0  0  0  0 
 15 17  1  0  0  0  0 
 16 18  1  0  0  0  0 
 17 19  1  0  0  0  0 
 18 19  1  0  0  0  0 
M  END
> <PUBCHEM_COMPOUND_CID>
33554626

$$$$

  CDK     0224151638

 19 21  0  0  0  0  0  0  0  0999 V2000
    5.2619    0.4214    0.0000 N   0  0  0  0  0  0  0  0  0  0  0  0
    6.2619    0.4214    0.0000 C   0  0  3  0  0  0  0  0  0  0  0  0
    6.7619   -0.4446    0.0000 C   0  0  0  0  0  0  0  0  0  0  0  0
    3.7320    0.9214    0.0000 C   0  0  0  0  0  0  0  0  0  0  0  0
    3.7320   -0.0786    0.0000 C   0  0  0  0  0  0  0  0  0  0  0  0
    4.6783    1.2261    0.0000 C   0  0  0  0  0  0  0  0  0  0  0  0
    4.6783   -0.3833    0.0000 C   0  0  0  0  0  0  0  0  0  0  0  0
    7.7619   -0.4446    0.0000 C   0  0  0  0  0  0  0  0  0  0  0  0
    2.8660   -0.5786    0.0000 C   0  0  0  0  0  0  0  0  0  0  0  0
    2.8660    1.4214    0.0000 C   0  0  0  0  0  0  0  0  0  0  0  0
    2.0000   -0.0786    0.0000 C   0  0  0  0  0  0  0  0  0  0  0  0
    2.0000    0.9214    0.0000 C   0  0  0  0  0  0  0  0  0  0  0  0
    8.2619   -1.3106    0.0000 C   0  0  0  0  0  0  0  0  0  0  0  0
    9.2619   -1.3106    0.0000 C   0  0  0  0  0  0  0  0  0  0  0  0
    9.7619   -2.1767    0.0000 C   0  0  0  0  0  0  0  0  0  0  0  0
    9.7619   -0.4446    0.0000 C   0  0  0  0  0  0  0  0  0  0  0  0
   11.2619   -1.3106    0.0000 C   0  0  0  0  0  0  0  0  0  0  0  0
   10.7619   -2.1767    0.0000 C   0  0  0  0  0  0  0  0  0  0  0  0
   10.7619   -0.4446    0.0000 C   0  0  0  0  0  0  0  0  0  0  0  0
  1  2  1  0  0  0  0 
  1  6  1  0  0  0  0 
  1  7  1  0  0  0  0 
  2  3  1  0  0  0  0 
  3  8  1  0  0  0  0 
  4  5  1  0  0  0  0 
  4  6  1  0  0  0  0 
  4 10  1  0  0  0  0 
  5  7  1  0  0  0  0 
  5  9  1  0  0  0  0 
  8 13  1  0  0  0  0 
  9 11  1  0  0  0  0 
 10 12  1  0  0  0  0 
 11 12  1  0  0  0  0 
 13 14  1  0  0  0  0 
 14 15  1  0  0  0  0 
 14 16  1  0  0  0  0 
 15 18  1  0  0  0  0 
 16 19  1  0  0  0  0 
 17 18  1  0  0  0  0 
 17 19  1  0  0  0  0 
M  END
> <PUBCHEM_COMPOUND_CID>
11772449

$$$$

  CDK     0224151638

 19 21  0  0  0  0  0  0  0  0999 V2000
    6.2851   -1.4403    0.0000 S   0  0  0  0  0  0  0  0  0  0  0  0
    8.0647   -1.3470    0.0000 N   0  0  0  0  0  0  0  0  0  0  0  0
    7.0941   -2.8415    0.0000 N   0  0  0  0  0  0  0  0  0  0  0  0
    8.0647    1.6530    0.0000 C   0  0  0  0  0  0  0  0  0  0  0  0
    8.0647   -0.3470    0.0000 C   0  0  0  0  0  0  0  0  0  0  0  0
    7.1987    1.1530    0.0000 C   0  0  0  0  0  0  0  0  0  0  0  0
    8.9307    1.1530    0.0000 C   0  0  0  0  0  0  0  0  0  0  0  0
    7.1987    0.1530    0.0000 C   0  0  0  0  0  0  0  0  0  0  0  0
    8.9307    0.1530    0.0000 C   0  0  0  0  0  0  0  0  0  0  0  0
    7.1987   -1.8470    0.0000 C   0  0  0  0  0  0  0  0  0  0  0  0
    4.2147   -1.1653    0.0000 C   0  0  0  0  0  0  0  0  0  0  0  0
    5.6160   -2.1834    0.0000 C   0  0  0  0  0  0  0  0  0  0  0  0
    4.6215   -2.0789    0.0000 C   0  0  0  0  0  0  0  0  0  0  0  0
    4.8025   -0.3563    0.0000 C   0  0  0  0  0  0  0  0  0  0  0  0
    3.2202   -1.0608    0.0000 C   0  0  0  0  0  0  0  0  0  0  0  0
    6.1160   -3.0494    0.0000 C   0  0  0  0  0  0  0  0  0  0  0  0
    3.4013    0.6617    0.0000 C   0  0  0  0  0  0  0  0  0  0  0  0
    4.3958    0.5572    0.0000 C   0  0  0  0  0  0  0  0  0  0  0  0
    2.8135   -0.1473    0.0000 C   0  0  0  0  0  0  0  0  0  0  0  0
  1 10  1  0  0  0  0 
  1 12  1  0  0  0  0 
  2  5  1  0  0  0  0 
  2 10  1  0  0  0  0 
  3 10  1  0  0  0  0 
  3 16  1  0  0  0  0 
  4  6  1  0  0  0  0 
  4  7  1  0  0  0  0 
  5  8  1  0  0  0  0 
  5  9  1  0  0  0  0 
  6  8  1  0  0  0  0 
  7  9  1  0  0  0  0 
 11 13  1  0  0  0  0 
 11 14  1  0  0  0  0 
 11 15  1  0  0  0  0 
 12 13  1  0  0  0  0 
 12 16  1  0  0  0  0 
 14 18  1  0  0  0  0 
 15 19  1  0  0  0  0 
 17 18  1  0  0  0  0 
 17 19  1  0  0  0  0 
M  END
> <PUBCHEM_COMPOUND_CID>
1185411

$$$$
