18841895
  CDK     1219141015

 39 41  0  0  0  0  0  0  0  0999 V2000
    6.3776   -0.1192    0.0000 S   0  0  0  0  0  0  0  0  0  0  0  0
    4.8255    1.9512    0.0000 O   0  0  0  0  0  0  0  0  0  0  0  0
    2.0000   -1.7125    0.0000 O   0  0  0  0  0  0  0  0  0  0  0  0
    2.8660   -0.2125    0.0000 O   0  0  0  0  0  0  0  0  0  0  0  0
    6.5468    1.4899    0.0000 N   0  0  0  0  0  0  0  0  0  0  0  0
    8.0413    0.5194    0.0000 N   0  0  0  0  0  0  0  0  0  0  0  0
    2.8660   -1.2125    0.0000 N   0  0  0  0  0  0  0  0  0  0  0  0
    8.2224    2.2419    0.0000 N   0  0  0  0  0  0  0  0  0  0  0  0
    6.9535    2.4035    0.0000 C   0  0  0  0  0  0  0  0  0  0  0  0
    5.4641    0.2875    0.0000 C   0  0  0  0  0  0  0  0  0  0  0  0
    5.5686    1.2820    0.0000 C   0  0  0  0  0  0  0  0  0  0  0  0
    7.0468    0.6239    0.0000 C   0  0  0  0  0  0  0  0  0  0  0  0
    4.5981   -0.2125    0.0000 C   0  0  0  0  0  0  0  0  0  0  0  0
    4.5981   -1.2125    0.0000 C   0  0  0  0  0  0  0  0  0  0  0  0
    6.3657    3.2125    0.0000 C   0  0  0  0  0  0  0  0  0  0  0  0
    3.7320   -1.7125    0.0000 C   0  0  0  0  0  0  0  0  0  0  0  0
    5.4641   -1.7125    0.0000 C   0  0  0  0  0  0  0  0  0  0  0  0
    3.7320   -2.7125    0.0000 C   0  0  0  0  0  0  0  0  0  0  0  0
    5.4641   -2.7125    0.0000 C   0  0  0  0  0  0  0  0  0  0  0  0
    4.5981   -3.2125    0.0000 C   0  0  0  0  0  0  0  0  0  0  0  0
    8.6291    1.3284    0.0000 C   0  0  0  0  0  0  0  0  0  0  0  0
    9.6236    1.2239    0.0000 C   0  0  0  0  0  0  0  0  0  0  0  0
   10.2114    2.0329    0.0000 C   0  0  0  0  0  0  0  0  0  0  0  0
    8.8101    3.0510    0.0000 C   0  0  0  0  0  0  0  0  0  0  0  0
    9.8047    2.9464    0.0000 C   0  0  0  0  0  0  0  0  0  0  0  0
    7.4675    2.0568    0.0000 H   0  0  0  0  0  0  0  0  0  0  0  0
    7.3842    2.8495    0.0000 H   0  0  0  0  0  0  0  0  0  0  0  0
    4.0611    0.0975    0.0000 H   0  0  0  0  0  0  0  0  0  0  0  0
    6.8673    3.5769    0.0000 H   0  0  0  0  0  0  0  0  0  0  0  0
    6.0013    3.7141    0.0000 H   0  0  0  0  0  0  0  0  0  0  0  0
    5.8641    2.8481    0.0000 H   0  0  0  0  0  0  0  0  0  0  0  0
    6.0010   -1.4025    0.0000 H   0  0  0  0  0  0  0  0  0  0  0  0
    3.1951   -3.0225    0.0000 H   0  0  0  0  0  0  0  0  0  0  0  0
    6.0010   -3.0225    0.0000 H   0  0  0  0  0  0  0  0  0  0  0  0
    4.5981   -3.8325    0.0000 H   0  0  0  0  0  0  0  0  0  0  0  0
    9.8758    0.6575    0.0000 H   0  0  0  0  0  0  0  0  0  0  0  0
   10.8280    1.9681    0.0000 H   0  0  0  0  0  0  0  0  0  0  0  0
    8.5580    3.6174    0.0000 H   0  0  0  0  0  0  0  0  0  0  0  0
   10.1691    3.4480    0.0000 H   0  0  0  0  0  0  0  0  0  0  0  0
  1 10  1  0  0  0  0 
  1 12  1  0  0  0  0 
  2 11  2  0  0  0  0 
  3  7  1  0  0  0  0 
  4  7  2  0  0  0  0 
  5  9  1  0  0  0  0 
  5 11  1  0  0  0  0 
  5 12  1  0  0  0  0 
  6 12  2  0  0  0  0 
  6 21  1  0  0  0  0 
  7 16  1  0  0  0  0 
  8 21  1  0  0  0  0 
  8 24  2  0  0  0  0 
  9 15  1  0  0  0  0 
  9 26  1  0  0  0  0 
  9 27  1  0  0  0  0 
 10 11  1  0  0  0  0 
 10 13  2  0  0  0  0 
 13 14  1  0  0  0  0 
 13 28  1  0  0  0  0 
 14 16  1  0  0  0  0 
 14 17  2  0  0  0  0 
 15 29  1  0  0  0  0 
 15 30  1  0  0  0  0 
 15 31  1  0  0  0  0 
 16 18  2  0  0  0  0 
 17 19  1  0  0  0  0 
 17 32  1  0  0  0  0 
 18 20  1  0  0  0  0 
 18 33  1  0  0  0  0 
 19 20  2  0  0  0  0 
 19 34  1  0  0  0  0 
 20 35  1  0  0  0  0 
 21 22  2  0  0  0  0 
 22 23  1  0  0  0  0 
 22 36  1  0  0  0  0 
 23 25  2  0  0  0  0 
 23 37  1  0  0  0  0 
 24 25  1  0  0  0  0 
 24 38  1  0  0  0  0 
 25 39  1  0  0  0  0 
M  CHG  1   3  -1
M  CHG  1   7   1
M  END
> <cdk:Title>
18841895

> <cdk:Remark>
null

> <PUBCHEM_COMPOUND_CID>
18841895

> <PUBCHEM_COMPOUND_CANONICALIZED>
1

> <PUBCHEM_CACTVS_COMPLEXITY>
587

> <PUBCHEM_CACTVS_HBOND_ACCEPTOR>
6

> <PUBCHEM_CACTVS_HBOND_DONOR>
0

> <PUBCHEM_CACTVS_ROTATABLE_BOND>
3

> <PUBCHEM_CACTVS_SUBSKEYS>
AAADccB7sABAAAAAAAAAAAAAAAAAAWAAAAA8QAAAAAAAAAABwAAAHgQEAAAADAjB2gQ/8JMYUAipAjd3dwCCkClxAjAp2CA4ZNqIIOLAmZGEIAhghgLIyacQgAAOAAAAAAACAAAAAAAAAAQAAAAAAAAAAA==

> <PUBCHEM_IUPAC_OPENEYE_NAME>
(2E,5Z)-3-ethyl-5-[(2-nitrophenyl)methylene]-2-(2-pyridylimino)thiazolidin-4-one

> <PUBCHEM_IUPAC_CAS_NAME>
(2E,5Z)-3-ethyl-5-[(2-nitrophenyl)methylidene]-2-(2-pyridinylimino)-4-thiazolidinone

> <PUBCHEM_IUPAC_NAME>
(2E,5Z)-3-ethyl-5-[(2-nitrophenyl)methylidene]-2-pyridin-2-ylimino-1,3-thiazolidin-4-one

> <PUBCHEM_IUPAC_SYSTEMATIC_NAME>
(2E,5Z)-3-ethyl-5-[(2-nitrophenyl)methylidene]-2-pyridin-2-ylimino-1,3-thiazolidin-4-one

> <PUBCHEM_IUPAC_TRADITIONAL_NAME>
(2E,5Z)-3-ethyl-5-(2-nitrobenzylidene)-2-(2-pyridylimino)thiazolidin-4-one

> <PUBCHEM_IUPAC_INCHI>
InChI=1S/C17H14N4O3S/c1-2-20-16(22)14(11-12-7-3-4-8-13(12)21(23)24)25-17(20)19-15-9-5-6-10-18-15/h3-11H,2H2,1H3/b14-11-,19-17+

> <PUBCHEM_IUPAC_INCHIKEY>
WTTLMQDSEALOPQ-MYRHIGEGSA-N

> <PUBCHEM_XLOGP3_AA>
3.7

> <PUBCHEM_EXACT_MASS>
354.078661

> <PUBCHEM_MOLECULAR_FORMULA>
C17H14N4O3S

> <PUBCHEM_MOLECULAR_WEIGHT>
354.38306

> <PUBCHEM_OPENEYE_CAN_SMILES>
CCN1C(=O)C(=CC2=CC=CC=C2[N+](=O)[O-])SC1=NC3=CC=CC=N3

> <PUBCHEM_OPENEYE_ISO_SMILES>
CCN\1C(=O)/C(=C/C2=CC=CC=C2[N+](=O)[O-])/S/C1=N/C3=CC=CC=N3

> <PUBCHEM_CACTVS_TPSA>
117

> <PUBCHEM_MONOISOTOPIC_WEIGHT>
354.078661

> <PUBCHEM_TOTAL_CHARGE>
0

> <PUBCHEM_HEAVY_ATOM_COUNT>
25

> <PUBCHEM_ATOM_DEF_STEREO_COUNT>
0

> <PUBCHEM_ATOM_UDEF_STEREO_COUNT>
0

> <PUBCHEM_BOND_DEF_STEREO_COUNT>
2

> <PUBCHEM_BOND_UDEF_STEREO_COUNT>
0

> <PUBCHEM_ISOTOPIC_ATOM_COUNT>
0

> <PUBCHEM_COMPONENT_COUNT>
1

> <PUBCHEM_CACTVS_TAUTO_COUNT>
1

> <PUBCHEM_COORDINATE_TYPE>
1

> <PUBCHEM_BONDANNOTATIONS>
14  16  8

$$$$
