23379805
  CDK     1219141015

 52 52  0  0  0  0  0  0  0  0999 V2000
    4.7540   -2.0194    0.0000 O   0  0  0  0  0  0  0  0  0  0  0  0
    8.2461    2.2594    0.0000 O   0  0  0  0  0  0  0  0  0  0  0  0
    6.4860   -2.0194    0.0000 O   0  0  0  0  0  0  0  0  0  0  0  0
    2.6200    1.2126    0.0000 O   0  0  0  0  0  0  0  0  0  0  0  0
    2.6200   -0.5194    0.0000 O   0  0  0  0  0  0  0  0  0  0  0  0
    6.4860    1.9806    0.0000 N   0  0  0  0  0  0  0  0  0  0  0  0
    5.6200   -0.5194    0.0000 C   0  0  3  0  0  0  0  0  0  0  0  0
    6.4860    0.9806    0.0000 C   0  0  3  0  0  0  0  0  0  0  0  0
    5.6200    0.4806    0.0000 C   0  0  0  0  0  0  0  0  0  0  0  0
    4.6200   -0.5194    0.0000 C   0  0  0  0  0  0  0  0  0  0  0  0
    7.3520    0.4806    0.0000 C   0  0  0  0  0  0  0  0  0  0  0  0
    5.6770    2.5684    0.0000 C   0  0  0  0  0  0  0  0  0  0  0  0
    6.6200   -0.5194    0.0000 C   0  0  0  0  0  0  0  0  0  0  0  0
    5.9860    3.5194    0.0000 C   0  0  0  0  0  0  0  0  0  0  0  0
    4.1200    0.3466    0.0000 C   0  0  3  0  0  0  0  0  0  0  0  0
    7.2950    2.5684    0.0000 C   0  0  0  0  0  0  0  0  0  0  0  0
    6.9860    3.5194    0.0000 C   0  0  0  0  0  0  0  0  0  0  0  0
    5.6200   -1.5194    0.0000 C   0  0  0  0  0  0  0  0  0  0  0  0
    7.3520   -0.5194    0.0000 C   0  0  0  0  0  0  0  0  0  0  0  0
    4.6200    1.2126    0.0000 C   0  0  0  0  0  0  0  0  0  0  0  0
    3.1200    0.3466    0.0000 C   0  0  0  0  0  0  0  0  0  0  0  0
    4.7540   -3.0194    0.0000 C   0  0  0  0  0  0  0  0  0  0  0  0
    3.8880   -3.5194    0.0000 C   0  0  0  0  0  0  0  0  0  0  0  0
    7.0230    1.2906    0.0000 H   0  0  0  0  0  0  0  0  0  0  0  0
    5.4079    1.0632    0.0000 H   0  0  0  0  0  0  0  0  0  0  0  0
    5.0094    0.3729    0.0000 H   0  0  0  0  0  0  0  0  0  0  0  0
    4.0374   -0.7315    0.0000 H   0  0  0  0  0  0  0  0  0  0  0  0
    4.7277   -1.1300    0.0000 H   0  0  0  0  0  0  0  0  0  0  0  0
    7.9626    0.3729    0.0000 H   0  0  0  0  0  0  0  0  0  0  0  0
    7.5641    1.0632    0.0000 H   0  0  0  0  0  0  0  0  0  0  0  0
    5.1106    2.8205    0.0000 H   0  0  0  0  0  0  0  0  0  0  0  0
    5.3670    2.0314    0.0000 H   0  0  0  0  0  0  0  0  0  0  0  0
    6.6200   -1.1394    0.0000 H   0  0  0  0  0  0  0  0  0  0  0  0
    7.2400   -0.5194    0.0000 H   0  0  0  0  0  0  0  0  0  0  0  0
    6.6200    0.1006    0.0000 H   0  0  0  0  0  0  0  0  0  0  0  0
    6.0508    4.1360    0.0000 H   0  0  0  0  0  0  0  0  0  0  0  0
    5.3796    3.6483    0.0000 H   0  0  0  0  0  0  0  0  0  0  0  0
    3.8100    0.8835    0.0000 H   0  0  0  0  0  0  0  0  0  0  0  0
    7.5925    3.6483    0.0000 H   0  0  0  0  0  0  0  0  0  0  0  0
    6.9212    4.1360    0.0000 H   0  0  0  0  0  0  0  0  0  0  0  0
    6.7320   -0.5194    0.0000 H   0  0  0  0  0  0  0  0  0  0  0  0
    7.3520   -1.1394    0.0000 H   0  0  0  0  0  0  0  0  0  0  0  0
    7.9720   -0.5194    0.0000 H   0  0  0  0  0  0  0  0  0  0  0  0
    5.1569    0.9026    0.0000 H   0  0  0  0  0  0  0  0  0  0  0  0
    4.9300    1.7496    0.0000 H   0  0  0  0  0  0  0  0  0  0  0  0
    4.0831    1.5226    0.0000 H   0  0  0  0  0  0  0  0  0  0  0  0
    4.9660   -3.6020    0.0000 H   0  0  0  0  0  0  0  0  0  0  0  0
    5.3646   -2.9118    0.0000 H   0  0  0  0  0  0  0  0  0  0  0  0
    2.0000    1.2126    0.0000 H   0  0  0  0  0  0  0  0  0  0  0  0
    3.5780   -2.9825    0.0000 H   0  0  0  0  0  0  0  0  0  0  0  0
    3.3510   -3.8294    0.0000 H   0  0  0  0  0  0  0  0  0  0  0  0
    4.1979   -4.0564    0.0000 H   0  0  0  0  0  0  0  0  0  0  0  0
  1 18  1  0  0  0  0 
  1 22  1  0  0  0  0 
  2 16  2  0  0  0  0 
  3 18  2  0  0  0  0 
  4 21  1  0  0  0  0 
  4 49  1  0  0  0  0 
  5 21  2  0  0  0  0 
  6  8  1  0  0  0  0 
  6 12  1  0  0  0  0 
  6 16  1  0  0  0  0 
  7  9  1  0  0  0  0 
  7 10  1  0  0  0  0 
  7 13  1  0  0  0  0 
  7 18  1  0  0  0  0 
  8  9  1  0  0  0  0 
  8 11  1  0  0  0  0 
  8 24  1  0  0  0  0 
  9 25  1  0  0  0  0 
  9 26  1  0  0  0  0 
 10 15  1  0  0  0  0 
 10 27  1  0  0  0  0 
 10 28  1  0  0  0  0 
 11 19  1  0  0  0  0 
 11 29  1  0  0  0  0 
 11 30  1  0  0  0  0 
 12 14  1  0  0  0  0 
 12 31  1  0  0  0  0 
 12 32  1  0  0  0  0 
 13 33  1  0  0  0  0 
 13 34  1  0  0  0  0 
 13 35  1  0  0  0  0 
 14 17  1  0  0  0  0 
 14 36  1  0  0  0  0 
 14 37  1  0  0  0  0 
 15 20  1  0  0  0  0 
 15 21  1  0  0  0  0 
 15 38  1  0  0  0  0 
 16 17  1  0  0  0  0 
 17 39  1  0  0  0  0 
 17 40  1  0  0  0  0 
 19 41  1  0  0  0  0 
 19 42  1  0  0  0  0 
 19 43  1  0  0  0  0 
 20 44  1  0  0  0  0 
 20 45  1  0  0  0  0 
 20 46  1  0  0  0  0 
 22 23  1  0  0  0  0 
 22 47  1  0  0  0  0 
 22 48  1  0  0  0  0 
 23 50  1  0  0  0  0 
 23 51  1  0  0  0  0 
 23 52  1  0  0  0  0 
M  END
> <cdk:Title>
23379805

> <cdk:Remark>
null

> <PUBCHEM_COMPOUND_CID>
23379805

> <PUBCHEM_COMPOUND_CANONICALIZED>
1

> <PUBCHEM_CACTVS_COMPLEXITY>
450

> <PUBCHEM_CACTVS_HBOND_ACCEPTOR>
5

> <PUBCHEM_CACTVS_HBOND_DONOR>
1

> <PUBCHEM_CACTVS_ROTATABLE_BOND>
10

> <PUBCHEM_CACTVS_SUBSKEYS>
AAADceB6OAAAAAAAAAAAAAAAAAAAAWAAAAAAAAAAAAAAAAAAAAAAHgAACAAADyjhgAYCCAMABgAIAAGQGAAAAAAAAAAAAAEIAAAAABIAgAAGQAAEBgCAAAG87uiPAAAAAAAAAAAAAAAAAAAAAAAAAAAAAA==

> <PUBCHEM_IUPAC_OPENEYE_NAME>
4-ethoxycarbonyl-2,4-dimethyl-6-(2-oxopyrrolidin-1-yl)octanoic acid

> <PUBCHEM_IUPAC_CAS_NAME>
4-ethoxycarbonyl-2,4-dimethyl-6-(2-oxo-1-pyrrolidinyl)octanoic acid

> <PUBCHEM_IUPAC_NAME>
4-ethoxycarbonyl-2,4-dimethyl-6-(2-oxopyrrolidin-1-yl)octanoic acid

> <PUBCHEM_IUPAC_SYSTEMATIC_NAME>
4-ethoxycarbonyl-2,4-dimethyl-6-(2-oxidanylidenepyrrolidin-1-yl)octanoic acid

> <PUBCHEM_IUPAC_TRADITIONAL_NAME>
4-carbethoxy-6-(2-ketopyrrolidino)-2,4-dimethyl-caprylic acid

> <PUBCHEM_IUPAC_INCHI>
InChI=1S/C17H29NO5/c1-5-13(18-9-7-8-14(18)19)11-17(4,16(22)23-6-2)10-12(3)15(20)21/h12-13H,5-11H2,1-4H3,(H,20,21)

> <PUBCHEM_IUPAC_INCHIKEY>
CVETTWWTEMSEJG-UHFFFAOYSA-N

> <PUBCHEM_XLOGP3_AA>
2.1

> <PUBCHEM_EXACT_MASS>
327.204573

> <PUBCHEM_MOLECULAR_FORMULA>
C17H29NO5

> <PUBCHEM_MOLECULAR_WEIGHT>
327.41586

> <PUBCHEM_OPENEYE_CAN_SMILES>
CCC(CC(C)(CC(C)C(=O)O)C(=O)OCC)N1CCCC1=O

> <PUBCHEM_OPENEYE_ISO_SMILES>
CCC(CC(C)(CC(C)C(=O)O)C(=O)OCC)N1CCCC1=O

> <PUBCHEM_CACTVS_TPSA>
83.9

> <PUBCHEM_MONOISOTOPIC_WEIGHT>
327.204573

> <PUBCHEM_TOTAL_CHARGE>
0

> <PUBCHEM_HEAVY_ATOM_COUNT>
23

> <PUBCHEM_ATOM_DEF_STEREO_COUNT>
0

> <PUBCHEM_ATOM_UDEF_STEREO_COUNT>
3

> <PUBCHEM_BOND_DEF_STEREO_COUNT>
0

> <PUBCHEM_BOND_UDEF_STEREO_COUNT>
0

> <PUBCHEM_ISOTOPIC_ATOM_COUNT>
0

> <PUBCHEM_COMPONENT_COUNT>
1

> <PUBCHEM_CACTVS_TAUTO_COUNT>
2

> <PUBCHEM_COORDINATE_TYPE>
1

> <PUBCHEM_BONDANNOTATIONS>
15  20  3

$$$$
61374959
  CDK     1219141015

 24 24  0  0  0  0  0  0  0  0999 V2000
    2.8090    1.3565    0.0000 S   0  0  0  0  0  0  0  0  0  0  0  0
    6.4712    1.0172    0.0000 O   0  0  0  0  0  0  0  0  0  0  0  0
    4.7770    0.6571    0.0000 N   0  0  0  0  0  0  0  0  0  0  0  0
    6.8870   -0.9391    0.0000 N   0  0  0  0  0  0  0  0  0  0  0  0
    7.0949   -1.9172    0.0000 N   0  0  0  0  0  0  0  0  0  0  0  0
    7.3028   -2.8954    0.0000 N   0  0  0  0  0  0  0  0  0  0  0  0
    4.5691    1.6353    0.0000 C   0  0  0  0  0  0  0  0  0  0  0  0
    3.6180    1.9443    0.0000 C   0  0  0  0  0  0  0  0  0  0  0  0
    5.7281    0.3481    0.0000 C   0  0  0  0  0  0  0  0  0  0  0  0
    4.0339   -0.0120    0.0000 C   0  0  0  0  0  0  0  0  0  0  0  0
    3.3090    2.8954    0.0000 C   0  0  0  0  0  0  0  0  0  0  0  0
    5.9360   -0.6300    0.0000 C   0  0  0  0  0  0  0  0  0  0  0  0
    2.3090    2.8954    0.0000 C   0  0  0  0  0  0  0  0  0  0  0  0
    2.0000    1.9443    0.0000 C   0  0  0  0  0  0  0  0  0  0  0  0
    5.1887    1.6569    0.0000 H   0  0  0  0  0  0  0  0  0  0  0  0
    4.6554    2.2492    0.0000 H   0  0  0  0  0  0  0  0  0  0  0  0
    3.6190    0.4487    0.0000 H   0  0  0  0  0  0  0  0  0  0  0  0
    3.5731   -0.4269    0.0000 H   0  0  0  0  0  0  0  0  0  0  0  0
    4.4487   -0.4728    0.0000 H   0  0  0  0  0  0  0  0  0  0  0  0
    3.6734    3.3969    0.0000 H   0  0  0  0  0  0  0  0  0  0  0  0
    5.3164   -0.6517    0.0000 H   0  0  0  0  0  0  0  0  0  0  0  0
    5.8497   -1.2440    0.0000 H   0  0  0  0  0  0  0  0  0  0  0  0
    1.9446    3.3969    0.0000 H   0  0  0  0  0  0  0  0  0  0  0  0
    1.4103    1.7527    0.0000 H   0  0  0  0  0  0  0  0  0  0  0  0
  1  8  1  0  0  0  0 
  1 14  1  0  0  0  0 
  2  9  2  0  0  0  0 
  3  7  1  0  0  0  0 
  3  9  1  0  0  0  0 
  3 10  1  0  0  0  0 
  4  5  2  0  0  0  0 
  4 12  1  0  0  0  0 
  5  6  2  0  0  0  0 
  7  8  1  0  0  0  0 
  7 15  1  0  0  0  0 
  7 16  1  0  0  0  0 
  8 11  2  0  0  0  0 
  9 12  1  0  0  0  0 
 10 17  1  0  0  0  0 
 10 18  1  0  0  0  0 
 10 19  1  0  0  0  0 
 11 13  1  0  0  0  0 
 11 20  1  0  0  0  0 
 12 21  1  0  0  0  0 
 12 22  1  0  0  0  0 
 13 14  2  0  0  0  0 
 13 23  1  0  0  0  0 
 14 24  1  0  0  0  0 
M  CHG  1   5   1
M  CHG  1   6  -1
M  END
> <cdk:Title>
61374959

> <cdk:Remark>
null

> <PUBCHEM_COMPOUND_CID>
61374959

> <PUBCHEM_COMPOUND_CANONICALIZED>
1

> <PUBCHEM_CACTVS_COMPLEXITY>
252

> <PUBCHEM_CACTVS_HBOND_ACCEPTOR>
4

> <PUBCHEM_CACTVS_HBOND_DONOR>
0

> <PUBCHEM_CACTVS_ROTATABLE_BOND>
4

> <PUBCHEM_CACTVS_SUBSKEYS>
AAADccBzoABAAAAAAAAAAAAAAAAAASAAAAAAAAAAAAAAAAABgAAAHgQIAAAACADF0ASyAYMAAAiOACFSEACDAIAgCBBIiBiIBIgIYCKgkRGUAAhghgCoiAYQAAAAAAAAAAAAAAAAAAAAAAAAAAAAAAAAAA==

> <PUBCHEM_IUPAC_OPENEYE_NAME>
2-azido-N-methyl-N-(2-thienylmethyl)acetamide

> <PUBCHEM_IUPAC_CAS_NAME>
2-azido-N-methyl-N-(thiophen-2-ylmethyl)acetamide

> <PUBCHEM_IUPAC_NAME>
2-azido-N-methyl-N-(thiophen-2-ylmethyl)acetamide

> <PUBCHEM_IUPAC_SYSTEMATIC_NAME>
2-azido-N-methyl-N-(thiophen-2-ylmethyl)ethanamide

> <PUBCHEM_IUPAC_TRADITIONAL_NAME>
2-azido-N-methyl-N-(2-thenyl)acetamide

> <PUBCHEM_IUPAC_INCHI>
InChI=1S/C8H10N4OS/c1-12(8(13)5-10-11-9)6-7-3-2-4-14-7/h2-4H,5-6H2,1H3

> <PUBCHEM_IUPAC_INCHIKEY>
NCHKJYNNFDAEQV-UHFFFAOYSA-N

> <PUBCHEM_XLOGP3_AA>
2

> <PUBCHEM_EXACT_MASS>
210.057532

> <PUBCHEM_MOLECULAR_FORMULA>
C8H10N4OS

> <PUBCHEM_MOLECULAR_WEIGHT>
210.2562

> <PUBCHEM_OPENEYE_CAN_SMILES>
CN(CC1=CC=CS1)C(=O)CN=[N+]=[N-]

> <PUBCHEM_OPENEYE_ISO_SMILES>
CN(CC1=CC=CS1)C(=O)CN=[N+]=[N-]

> <PUBCHEM_CACTVS_TPSA>
62.9

> <PUBCHEM_MONOISOTOPIC_WEIGHT>
210.057532

> <PUBCHEM_TOTAL_CHARGE>
0

> <PUBCHEM_HEAVY_ATOM_COUNT>
14

> <PUBCHEM_ATOM_DEF_STEREO_COUNT>
0

> <PUBCHEM_ATOM_UDEF_STEREO_COUNT>
0

> <PUBCHEM_BOND_DEF_STEREO_COUNT>
0

> <PUBCHEM_BOND_UDEF_STEREO_COUNT>
0

> <PUBCHEM_ISOTOPIC_ATOM_COUNT>
0

> <PUBCHEM_COMPONENT_COUNT>
1

> <PUBCHEM_CACTVS_TAUTO_COUNT>
1

> <PUBCHEM_COORDINATE_TYPE>
1

> <PUBCHEM_BONDANNOTATIONS>
1  14  8

$$$$
13871875
  CDK     1219141015

 17 17  0  0  0  0  0  0  0  0999 V2000
    4.5576    1.0116    0.0000 O   0  0  0  0  0  0  0  0  0  0  0  0
    3.4699   -1.3362    0.0000 O   0  0  0  0  0  0  0  0  0  0  0  0
    2.5896    1.7110    0.0000 O   0  0  0  0  0  0  0  0  0  0  0  0
    6.3177    0.7329    0.0000 O   0  0  0  0  0  0  0  0  0  0  0  0
    3.7486    0.4239    0.0000 C   0  0  1  0  0  0  0  0  0  0  0  0
    4.0576   -0.5272    0.0000 C   0  0  3  0  0  0  0  0  0  0  0  0
    5.0576   -0.5272    0.0000 C   0  0  0  0  0  0  0  0  0  0  0  0
    2.7976    0.7329    0.0000 C   0  0  0  0  0  0  0  0  0  0  0  0
    5.3667    0.4239    0.0000 C   0  0  0  0  0  0  0  0  0  0  0  0
    3.6516    1.0362    0.0000 H   0  0  0  0  0  0  0  0  0  0  0  0
    3.4453   -0.4302    0.0000 H   0  0  0  0  0  0  0  0  0  0  0  0
    4.9928   -1.1438    0.0000 H   0  0  0  0  0  0  0  0  0  0  0  0
    5.6641   -0.6561    0.0000 H   0  0  0  0  0  0  0  0  0  0  0  0
    2.1779    0.7112    0.0000 H   0  0  0  0  0  0  0  0  0  0  0  0
    2.7113    0.1189    0.0000 H   0  0  0  0  0  0  0  0  0  0  0  0
    3.7220   -1.9026    0.0000 H   0  0  0  0  0  0  0  0  0  0  0  0
    2.0000    1.9026    0.0000 H   0  0  0  0  0  0  0  0  0  0  0  0
  1  5  1  0  0  0  0 
  1  9  1  0  0  0  0 
  2  6  1  0  0  0  0 
  2 16  1  0  0  0  0 
  3  8  1  0  0  0  0 
  3 17  1  0  0  0  0 
  4  9  2  0  0  0  0 
  5  6  1  0  0  0  0 
  5  8  1  1  0  0  0 
  5 10  1  0  0  0  0 
  6  7  1  0  0  0  0 
  6 11  1  0  0  0  0 
  7  9  1  0  0  0  0 
  7 12  1  0  0  0  0 
  7 13  1  0  0  0  0 
  8 14  1  0  0  0  0 
  8 15  1  0  0  0  0 
M  END
> <cdk:Title>
13871875

> <cdk:Remark>
null

> <PUBCHEM_COMPOUND_CID>
13871875

> <PUBCHEM_COMPOUND_CANONICALIZED>
1

> <PUBCHEM_CACTVS_COMPLEXITY>
122

> <PUBCHEM_CACTVS_HBOND_ACCEPTOR>
4

> <PUBCHEM_CACTVS_HBOND_DONOR>
2

> <PUBCHEM_CACTVS_ROTATABLE_BOND>
1

> <PUBCHEM_CACTVS_SUBSKEYS>
AAADccBgOAAAAAAAAAAAAAAAAAAAASAAAAAAAAAAAAAAAAAAAAAAGgAACAAACBSggAIACAAABgAIAACQCAAAAAAAAAAAAAEAAAABEBYAAAACQAAFIAADAACKJAAAAAAAAAAAAAAAAAAAAAAAAAAAAAAAAA==

> <PUBCHEM_IUPAC_OPENEYE_NAME>
(5R)-4-hydroxy-5-(hydroxymethyl)tetrahydrofuran-2-one

> <PUBCHEM_IUPAC_CAS_NAME>
(5R)-4-hydroxy-5-(hydroxymethyl)-2-oxolanone

> <PUBCHEM_IUPAC_NAME>
(5R)-4-hydroxy-5-(hydroxymethyl)oxolan-2-one

> <PUBCHEM_IUPAC_SYSTEMATIC_NAME>
(5R)-5-(hydroxymethyl)-4-oxidanyl-oxolan-2-one

> <PUBCHEM_IUPAC_TRADITIONAL_NAME>
(5R)-4-hydroxy-5-methylol-tetrahydrofuran-2-one

> <PUBCHEM_IUPAC_INCHI>
InChI=1S/C5H8O4/c6-2-4-3(7)1-5(8)9-4/h3-4,6-7H,1-2H2/t3?,4-/m1/s1

> <PUBCHEM_IUPAC_INCHIKEY>
YIXDEYPPAGPYDP-SRBOSORUSA-N

> <PUBCHEM_XLOGP3_AA>
-0.9

> <PUBCHEM_EXACT_MASS>
132.042259

> <PUBCHEM_MOLECULAR_FORMULA>
C5H8O4

> <PUBCHEM_MOLECULAR_WEIGHT>
132.11462

> <PUBCHEM_OPENEYE_CAN_SMILES>
C1C(C(OC1=O)CO)O

> <PUBCHEM_OPENEYE_ISO_SMILES>
C1C([C@H](OC1=O)CO)O

> <PUBCHEM_CACTVS_TPSA>
66.8

> <PUBCHEM_MONOISOTOPIC_WEIGHT>
132.042259

> <PUBCHEM_TOTAL_CHARGE>
0

> <PUBCHEM_HEAVY_ATOM_COUNT>
9

> <PUBCHEM_ATOM_DEF_STEREO_COUNT>
1

> <PUBCHEM_ATOM_UDEF_STEREO_COUNT>
1

> <PUBCHEM_BOND_DEF_STEREO_COUNT>
0

> <PUBCHEM_BOND_UDEF_STEREO_COUNT>
0

> <PUBCHEM_ISOTOPIC_ATOM_COUNT>
0

> <PUBCHEM_COMPONENT_COUNT>
1

> <PUBCHEM_CACTVS_TAUTO_COUNT>
2

> <PUBCHEM_COORDINATE_TYPE>
1

> <PUBCHEM_BONDANNOTATIONS>
6  2  3

$$$$
