2398094
  CDK     1219141015

 32 32  0  0  0  0  0  0  0  0999 V2000
    6.5000    3.1651    0.0000 O   0  0  0  0  0  0  0  0  0  0  0  0
    6.5000    1.1651    0.0000 N   0  0  0  0  0  0  0  0  0  0  0  0
    4.5000   -0.5670    0.0000 N   0  0  0  0  0  0  0  0  0  0  0  0
    2.0000   -3.1651    0.0000 N   0  0  0  0  0  0  0  0  0  0  0  0
    6.0000    0.2990    0.0000 C   0  0  0  0  0  0  0  0  0  0  0  0
    7.3660    1.6651    0.0000 C   0  0  0  0  0  0  0  0  0  0  0  0
    5.6340    1.6651    0.0000 C   0  0  0  0  0  0  0  0  0  0  0  0
    5.0000    0.2990    0.0000 C   0  0  0  0  0  0  0  0  0  0  0  0
    7.3660    2.6651    0.0000 C   0  0  0  0  0  0  0  0  0  0  0  0
    5.6340    2.6651    0.0000 C   0  0  0  0  0  0  0  0  0  0  0  0
    4.0000   -1.4330    0.0000 C   0  0  0  0  0  0  0  0  0  0  0  0
    3.0000   -1.4330    0.0000 C   0  0  0  0  0  0  0  0  0  0  0  0
    2.5000   -2.2990    0.0000 C   0  0  0  0  0  0  0  0  0  0  0  0
    6.8100    0.6281    0.0000 H   0  0  0  0  0  0  0  0  0  0  0  0
    5.8923   -0.3115    0.0000 H   0  0  0  0  0  0  0  0  0  0  0  0
    6.5826    0.0870    0.0000 H   0  0  0  0  0  0  0  0  0  0  0  0
    7.5781    1.0824    0.0000 H   0  0  0  0  0  0  0  0  0  0  0  0
    7.9766    1.7727    0.0000 H   0  0  0  0  0  0  0  0  0  0  0  0
    5.0234    1.7727    0.0000 H   0  0  0  0  0  0  0  0  0  0  0  0
    5.4219    1.0824    0.0000 H   0  0  0  0  0  0  0  0  0  0  0  0
    5.1077    0.9096    0.0000 H   0  0  0  0  0  0  0  0  0  0  0  0
    4.4174    0.5111    0.0000 H   0  0  0  0  0  0  0  0  0  0  0  0
    7.9766    2.5574    0.0000 H   0  0  0  0  0  0  0  0  0  0  0  0
    7.5781    3.2477    0.0000 H   0  0  0  0  0  0  0  0  0  0  0  0
    5.4219    3.2477    0.0000 H   0  0  0  0  0  0  0  0  0  0  0  0
    5.0234    2.5574    0.0000 H   0  0  0  0  0  0  0  0  0  0  0  0
    3.9631   -0.2570    0.0000 H   0  0  0  0  0  0  0  0  0  0  0  0
    5.0369   -0.8770    0.0000 H   0  0  0  0  0  0  0  0  0  0  0  0
    3.8923   -2.0436    0.0000 H   0  0  0  0  0  0  0  0  0  0  0  0
    4.5826   -1.6451    0.0000 H   0  0  0  0  0  0  0  0  0  0  0  0
    3.1077   -0.8224    0.0000 H   0  0  0  0  0  0  0  0  0  0  0  0
    2.4174   -1.2210    0.0000 H   0  0  0  0  0  0  0  0  0  0  0  0
  1  9  1  0  0  0  0 
  1 10  1  0  0  0  0 
  2  5  1  0  0  0  0 
  2  6  1  0  0  0  0 
  2  7  1  0  0  0  0 
  2 14  1  0  0  0  0 
  3  8  1  0  0  0  0 
  3 11  1  0  0  0  0 
  3 27  1  0  0  0  0 
  3 28  1  0  0  0  0 
  4 13  3  0  0  0  0 
  5  8  1  0  0  0  0 
  5 15  1  0  0  0  0 
  5 16  1  0  0  0  0 
  6  9  1  0  0  0  0 
  6 17  1  0  0  0  0 
  6 18  1  0  0  0  0 
  7 10  1  0  0  0  0 
  7 19  1  0  0  0  0 
  7 20  1  0  0  0  0 
  8 21  1  0  0  0  0 
  8 22  1  0  0  0  0 
  9 23  1  0  0  0  0 
  9 24  1  0  0  0  0 
 10 25  1  0  0  0  0 
 10 26  1  0  0  0  0 
 11 12  1  0  0  0  0 
 11 29  1  0  0  0  0 
 11 30  1  0  0  0  0 
 12 13  1  0  0  0  0 
 12 31  1  0  0  0  0 
 12 32  1  0  0  0  0 
M  CHG  1   2   1
M  CHG  1   3   1
M  END
> <cdk:Title>
2398094

> <cdk:Remark>
null

> <PUBCHEM_COMPOUND_CID>
2398094

> <PUBCHEM_COMPOUND_CANONICALIZED>
1

> <PUBCHEM_CACTVS_COMPLEXITY>
169

> <PUBCHEM_CACTVS_HBOND_ACCEPTOR>
2

> <PUBCHEM_CACTVS_HBOND_DONOR>
2

> <PUBCHEM_CACTVS_ROTATABLE_BOND>
5

> <PUBCHEM_CACTVS_SUBSKEYS>
AAADceBzIAAAAAAAAAAAAAAAAAAAAAAAAAAsAAAAAAAAAAAAAAAAHgAQAAAACADhgAYAAAPABAAQBAAAAAAAAAAAAAAAAIAIAAACwAAAAAAXAAAAEACQAAAAAAAAAAAAAAAAAAAAAAAAAAAAAAAAAAAAAA==

> <PUBCHEM_IUPAC_OPENEYE_NAME>
2-cyanoethyl(2-morpholin-4-ium-4-ylethyl)ammonium

> <PUBCHEM_IUPAC_CAS_NAME>
2-cyanoethyl-[2-(4-morpholin-4-iumyl)ethyl]ammonium

> <PUBCHEM_IUPAC_NAME>
2-cyanoethyl(2-morpholin-4-ium-4-ylethyl)azanium

> <PUBCHEM_IUPAC_SYSTEMATIC_NAME>
2-cyanoethyl(2-morpholin-4-ium-4-ylethyl)azanium

> <PUBCHEM_IUPAC_TRADITIONAL_NAME>
2-cyanoethyl(2-morpholin-4-ium-4-ylethyl)ammonium

> <PUBCHEM_IUPAC_INCHI>
InChI=1S/C9H17N3O/c10-2-1-3-11-4-5-12-6-8-13-9-7-12/h11H,1,3-9H2/p+2

> <PUBCHEM_IUPAC_INCHIKEY>
ZNDCJNWMQMVSQG-UHFFFAOYSA-P

> <PUBCHEM_XLOGP3_AA>
-0.8

> <PUBCHEM_EXACT_MASS>
185.152812

> <PUBCHEM_MOLECULAR_FORMULA>
C9H19N3O+2

> <PUBCHEM_MOLECULAR_WEIGHT>
185.26666

> <PUBCHEM_OPENEYE_CAN_SMILES>
C1COCC[NH+]1CC[NH2+]CCC#N

> <PUBCHEM_OPENEYE_ISO_SMILES>
C1COCC[NH+]1CC[NH2+]CCC#N

> <PUBCHEM_CACTVS_TPSA>
54.1

> <PUBCHEM_MONOISOTOPIC_WEIGHT>
185.152812

> <PUBCHEM_TOTAL_CHARGE>
2

> <PUBCHEM_HEAVY_ATOM_COUNT>
13

> <PUBCHEM_ATOM_DEF_STEREO_COUNT>
0

> <PUBCHEM_ATOM_UDEF_STEREO_COUNT>
0

> <PUBCHEM_BOND_DEF_STEREO_COUNT>
0

> <PUBCHEM_BOND_UDEF_STEREO_COUNT>
0

> <PUBCHEM_ISOTOPIC_ATOM_COUNT>
0

> <PUBCHEM_COMPONENT_COUNT>
1

> <PUBCHEM_CACTVS_TAUTO_COUNT>
1

> <PUBCHEM_COORDINATE_TYPE>
1

$$$$
2398094
  CDK     1219141015

 32 32  0  0  0  0  0  0  0  0999 V2000
    6.5000    3.1651    0.0000 O   0  0  0  0  0  0  0  0  0  0  0  0
    6.5000    1.1651    0.0000 N   0  0  0  0  0  0  0  0  0  0  0  0
    4.5000   -0.5670    0.0000 N   0  0  0  0  0  0  0  0  0  0  0  0
    2.0000   -3.1651    0.0000 N   0  0  0  0  0  0  0  0  0  0  0  0
    6.0000    0.2990    0.0000 C   0  0  0  0  0  0  0  0  0  0  0  0
    7.3660    1.6651    0.0000 C   0  0  0  0  0  0  0  0  0  0  0  0
    5.6340    1.6651    0.0000 C   0  0  0  0  0  0  0  0  0  0  0  0
    5.0000    0.2990    0.0000 C   0  0  0  0  0  0  0  0  0  0  0  0
    7.3660    2.6651    0.0000 C   0  0  0  0  0  0  0  0  0  0  0  0
    5.6340    2.6651    0.0000 C   0  0  0  0  0  0  0  0  0  0  0  0
    4.0000   -1.4330    0.0000 C   0  0  0  0  0  0  0  0  0  0  0  0
    3.0000   -1.4330    0.0000 C   0  0  0  0  0  0  0  0  0  0  0  0
    2.5000   -2.2990    0.0000 C   0  0  0  0  0  0  0  0  0  0  0  0
    6.8100    0.6281    0.0000 H   0  0  0  0  0  0  0  0  0  0  0  0
    5.8923   -0.3115    0.0000 H   0  0  0  0  0  0  0  0  0  0  0  0
    6.5826    0.0870    0.0000 H   0  0  0  0  0  0  0  0  0  0  0  0
    7.5781    1.0824    0.0000 H   0  0  0  0  0  0  0  0  0  0  0  0
    7.9766    1.7727    0.0000 H   0  0  0  0  0  0  0  0  0  0  0  0
    5.0234    1.7727    0.0000 H   0  0  0  0  0  0  0  0  0  0  0  0
    5.4219    1.0824    0.0000 H   0  0  0  0  0  0  0  0  0  0  0  0
    5.1077    0.9096    0.0000 H   0  0  0  0  0  0  0  0  0  0  0  0
    4.4174    0.5111    0.0000 H   0  0  0  0  0  0  0  0  0  0  0  0
    7.9766    2.5574    0.0000 H   0  0  0  0  0  0  0  0  0  0  0  0
    7.5781    3.2477    0.0000 H   0  0  0  0  0  0  0  0  0  0  0  0
    5.4219    3.2477    0.0000 H   0  0  0  0  0  0  0  0  0  0  0  0
    5.0234    2.5574    0.0000 H   0  0  0  0  0  0  0  0  0  0  0  0
    3.9631   -0.2570    0.0000 H   0  0  0  0  0  0  0  0  0  0  0  0
    5.0369   -0.8770    0.0000 H   0  0  0  0  0  0  0  0  0  0  0  0
    3.8923   -2.0436    0.0000 H   0  0  0  0  0  0  0  0  0  0  0  0
    4.5826   -1.6451    0.0000 H   0  0  0  0  0  0  0  0  0  0  0  0
    3.1077   -0.8224    0.0000 H   0  0  0  0  0  0  0  0  0  0  0  0
    2.4174   -1.2210    0.0000 H   0  0  0  0  0  0  0  0  0  0  0  0
  1  9  1  0  0  0  0 
  1 10  1  0  0  0  0 
  2  5  1  0  0  0  0 
  2  6  1  0  0  0  0 
  2  7  1  0  0  0  0 
  2 14  1  0  0  0  0 
  3  8  1  0  0  0  0 
  3 11  1  0  0  0  0 
  3 27  1  0  0  0  0 
  3 28  1  0  0  0  0 
  4 13  3  0  0  0  0 
  5  8  1  0  0  0  0 
  5 15  1  0  0  0  0 
  5 16  1  0  0  0  0 
  6  9  1  0  0  0  0 
  6 17  1  0  0  0  0 
  6 18  1  0  0  0  0 
  7 10  1  0  0  0  0 
  7 19  1  0  0  0  0 
  7 20  1  0  0  0  0 
  8 21  1  0  0  0  0 
  8 22  1  0  0  0  0 
  9 23  1  0  0  0  0 
  9 24  1  0  0  0  0 
 10 25  1  0  0  0  0 
 10 26  1  0  0  0  0 
 11 12  1  0  0  0  0 
 11 29  1  0  0  0  0 
 11 30  1  0  0  0  0 
 12 13  1  0  0  0  0 
 12 31  1  0  0  0  0 
 12 32  1  0  0  0  0 
M  CHG  1   2   1
M  CHG  1   3   1
M  END
> <cdk:Title>
2398094

> <cdk:Remark>
null

> <PUBCHEM_COMPOUND_CID>
2398094

> <PUBCHEM_COMPOUND_CANONICALIZED>
1

> <PUBCHEM_CACTVS_COMPLEXITY>
169

> <PUBCHEM_CACTVS_HBOND_ACCEPTOR>
2

> <PUBCHEM_CACTVS_HBOND_DONOR>
2

> <PUBCHEM_CACTVS_ROTATABLE_BOND>
5

> <PUBCHEM_CACTVS_SUBSKEYS>
AAADceBzIAAAAAAAAAAAAAAAAAAAAAAAAAAsAAAAAAAAAAAAAAAAHgAQAAAACADhgAYAAAPABAAQBAAAAAAAAAAAAAAAAIAIAAACwAAAAAAXAAAAEACQAAAAAAAAAAAAAAAAAAAAAAAAAAAAAAAAAAAAAA==

> <PUBCHEM_IUPAC_OPENEYE_NAME>
2-cyanoethyl(2-morpholin-4-ium-4-ylethyl)ammonium

> <PUBCHEM_IUPAC_CAS_NAME>
2-cyanoethyl-[2-(4-morpholin-4-iumyl)ethyl]ammonium

> <PUBCHEM_IUPAC_NAME>
2-cyanoethyl(2-morpholin-4-ium-4-ylethyl)azanium

> <PUBCHEM_IUPAC_SYSTEMATIC_NAME>
2-cyanoethyl(2-morpholin-4-ium-4-ylethyl)azanium

> <PUBCHEM_IUPAC_TRADITIONAL_NAME>
2-cyanoethyl(2-morpholin-4-ium-4-ylethyl)ammonium

> <PUBCHEM_IUPAC_INCHI>
InChI=1S/C9H17N3O/c10-2-1-3-11-4-5-12-6-8-13-9-7-12/h11H,1,3-9H2/p+2

> <PUBCHEM_IUPAC_INCHIKEY>
ZNDCJNWMQMVSQG-UHFFFAOYSA-P

> <PUBCHEM_XLOGP3_AA>
-0.8

> <PUBCHEM_EXACT_MASS>
185.152812

> <PUBCHEM_MOLECULAR_FORMULA>
C9H19N3O+2

> <PUBCHEM_MOLECULAR_WEIGHT>
185.26666

> <PUBCHEM_OPENEYE_CAN_SMILES>
C1COCC[NH+]1CC[NH2+]CCC#N

> <PUBCHEM_OPENEYE_ISO_SMILES>
C1COCC[NH+]1CC[NH2+]CCC#N

> <PUBCHEM_CACTVS_TPSA>
54.1

> <PUBCHEM_MONOISOTOPIC_WEIGHT>
185.152812

> <PUBCHEM_TOTAL_CHARGE>
2

> <PUBCHEM_HEAVY_ATOM_COUNT>
13

> <PUBCHEM_ATOM_DEF_STEREO_COUNT>
0

> <PUBCHEM_ATOM_UDEF_STEREO_COUNT>
0

> <PUBCHEM_BOND_DEF_STEREO_COUNT>
0

> <PUBCHEM_BOND_UDEF_STEREO_COUNT>
0

> <PUBCHEM_ISOTOPIC_ATOM_COUNT>
0

> <PUBCHEM_COMPONENT_COUNT>
1

> <PUBCHEM_CACTVS_TAUTO_COUNT>
1

> <PUBCHEM_COORDINATE_TYPE>
1

$$$$
36943595
  CDK     1219141015

 40 40  0  0  0  0  0  0  0  0999 V2000
    3.4030   -0.5000    0.0000 O   0  0  0  0  0  0  0  0  0  0  0  0
    5.1350   -0.5000    0.0000 N   0  0  0  0  0  0  0  0  0  0  0  0
    5.1350   -2.5000    0.0000 N   0  0  0  0  0  0  0  0  0  0  0  0
    3.4030   -3.5000    0.0000 N   0  0  0  0  0  0  0  0  0  0  0  0
    2.5369   -2.0000    0.0000 N   0  0  0  0  0  0  0  0  0  0  0  0
    6.0010    1.0000    0.0000 C   0  0  2  0  0  0  0  0  0  0  0  0
    6.0010    2.0000    0.0000 C   0  0  0  0  0  0  0  0  0  0  0  0
    6.8671    0.5000    0.0000 C   0  0  0  0  0  0  0  0  0  0  0  0
    5.1350    0.5000    0.0000 C   0  0  0  0  0  0  0  0  0  0  0  0
    6.8671    2.5000    0.0000 C   0  0  0  0  0  0  0  0  0  0  0  0
    6.8671    3.5000    0.0000 C   0  0  0  0  0  0  0  0  0  0  0  0
    7.7331    1.0000    0.0000 C   0  0  0  0  0  0  0  0  0  0  0  0
    7.7331    4.0000    0.0000 C   0  0  0  0  0  0  0  0  0  0  0  0
    4.2690   -1.0000    0.0000 C   0  0  0  0  0  0  0  0  0  0  0  0
    4.2690   -2.0000    0.0000 C   0  0  0  0  0  0  0  0  0  0  0  0
    3.4030   -2.5000    0.0000 C   0  0  0  0  0  0  0  0  0  0  0  0
    5.1350   -3.5000    0.0000 C   0  0  0  0  0  0  0  0  0  0  0  0
    4.2690   -4.0000    0.0000 C   0  0  0  0  0  0  0  0  0  0  0  0
    6.5380    1.3100    0.0000 H   0  0  0  0  0  0  0  0  0  0  0  0
    5.7890    2.5826    0.0000 H   0  0  0  0  0  0  0  0  0  0  0  0
    5.3905    1.8923    0.0000 H   0  0  0  0  0  0  0  0  0  0  0  0
    6.4685    0.0251    0.0000 H   0  0  0  0  0  0  0  0  0  0  0  0
    7.2656    0.0251    0.0000 H   0  0  0  0  0  0  0  0  0  0  0  0
    4.9230    1.0826    0.0000 H   0  0  0  0  0  0  0  0  0  0  0  0
    4.5244    0.3923    0.0000 H   0  0  0  0  0  0  0  0  0  0  0  0
    7.0791    1.9174    0.0000 H   0  0  0  0  0  0  0  0  0  0  0  0
    7.4776    2.6077    0.0000 H   0  0  0  0  0  0  0  0  0  0  0  0
    6.6550    4.0826    0.0000 H   0  0  0  0  0  0  0  0  0  0  0  0
    6.2565    3.3923    0.0000 H   0  0  0  0  0  0  0  0  0  0  0  0
    8.0431    0.4631    0.0000 H   0  0  0  0  0  0  0  0  0  0  0  0
    8.2700    1.3100    0.0000 H   0  0  0  0  0  0  0  0  0  0  0  0
    7.4231    1.5369    0.0000 H   0  0  0  0  0  0  0  0  0  0  0  0
    5.6720   -0.8100    0.0000 H   0  0  0  0  0  0  0  0  0  0  0  0
    8.0431    3.4631    0.0000 H   0  0  0  0  0  0  0  0  0  0  0  0
    8.2700    4.3100    0.0000 H   0  0  0  0  0  0  0  0  0  0  0  0
    7.4231    4.5369    0.0000 H   0  0  0  0  0  0  0  0  0  0  0  0
    5.6720   -3.8100    0.0000 H   0  0  0  0  0  0  0  0  0  0  0  0
    2.0000   -2.3100    0.0000 H   0  0  0  0  0  0  0  0  0  0  0  0
    2.5369   -1.3800    0.0000 H   0  0  0  0  0  0  0  0  0  0  0  0
    4.2690   -4.6200    0.0000 H   0  0  0  0  0  0  0  0  0  0  0  0
  1 14  2  0  0  0  0 
  2  9  1  0  0  0  0 
  2 14  1  0  0  0  0 
  2 33  1  0  0  0  0 
  3 15  2  0  0  0  0 
  3 17  1  0  0  0  0 
  4 16  2  0  0  0  0 
  4 18  1  0  0  0  0 
  5 16  1  0  0  0  0 
  5 38  1  0  0  0  0 
  5 39  1  0  0  0  0 
  6  7  1  0  0  0  0 
  6  8  1  0  0  0  0 
  6  9  1  1  0  0  0 
  6 19  1  0  0  0  0 
  7 10  1  0  0  0  0 
  7 20  1  0  0  0  0 
  7 21  1  0  0  0  0 
  8 12  1  0  0  0  0 
  8 22  1  0  0  0  0 
  8 23  1  0  0  0  0 
  9 24  1  0  0  0  0 
  9 25  1  0  0  0  0 
 10 11  1  0  0  0  0 
 10 26  1  0  0  0  0 
 10 27  1  0  0  0  0 
 11 13  1  0  0  0  0 
 11 28  1  0  0  0  0 
 11 29  1  0  0  0  0 
 12 30  1  0  0  0  0 
 12 31  1  0  0  0  0 
 12 32  1  0  0  0  0 
 13 34  1  0  0  0  0 
 13 35  1  0  0  0  0 
 13 36  1  0  0  0  0 
 14 15  1  0  0  0  0 
 15 16  1  0  0  0  0 
 17 18  2  0  0  0  0 
 17 37  1  0  0  0  0 
 18 40  1  0  0  0  0 
M  END
> <cdk:Title>
36943595

> <cdk:Remark>
null

> <PUBCHEM_COMPOUND_CID>
36943595

> <PUBCHEM_COMPOUND_CANONICALIZED>
1

> <PUBCHEM_CACTVS_COMPLEXITY>
247

> <PUBCHEM_CACTVS_HBOND_ACCEPTOR>
4

> <PUBCHEM_CACTVS_HBOND_DONOR>
2

> <PUBCHEM_CACTVS_ROTATABLE_BOND>
7

> <PUBCHEM_CACTVS_SUBSKEYS>
AAADceBzoAAAAAAAAAAAAAAAAAAAAAAAAAAsAAAAAAAAAAABgAAAHgAQAAAADQjBlgQvsBLIEACoARd3dACAgC0XEiAIUIG4dECAQEpAwCAUAIgAFgLAAGEQgAAOAAAAAAAAAAAAAAAAAAAAAAAAAAAAAA==

> <PUBCHEM_IUPAC_OPENEYE_NAME>
3-amino-N-[(2S)-2-ethylhexyl]pyrazine-2-carboxamide

> <PUBCHEM_IUPAC_CAS_NAME>
3-amino-N-[(2S)-2-ethylhexyl]-2-pyrazinecarboxamide

> <PUBCHEM_IUPAC_NAME>
3-amino-N-[(2S)-2-ethylhexyl]pyrazine-2-carboxamide

> <PUBCHEM_IUPAC_SYSTEMATIC_NAME>
3-azanyl-N-[(2S)-2-ethylhexyl]pyrazine-2-carboxamide

> <PUBCHEM_IUPAC_TRADITIONAL_NAME>
3-amino-N-[(2S)-2-ethylhexyl]pyrazinamide

> <PUBCHEM_IUPAC_INCHI>
InChI=1S/C13H22N4O/c1-3-5-6-10(4-2)9-17-13(18)11-12(14)16-8-7-15-11/h7-8,10H,3-6,9H2,1-2H3,(H2,14,16)(H,17,18)/t10-/m0/s1

> <PUBCHEM_IUPAC_INCHIKEY>
BGOLTWWCLQMFNA-JTQLQIEISA-N

> <PUBCHEM_XLOGP3_AA>
2.7

> <PUBCHEM_EXACT_MASS>
250.179361

> <PUBCHEM_MOLECULAR_FORMULA>
C13H22N4O

> <PUBCHEM_MOLECULAR_WEIGHT>
250.33998

> <PUBCHEM_OPENEYE_CAN_SMILES>
CCCCC(CC)CNC(=O)C1=NC=CN=C1N

> <PUBCHEM_OPENEYE_ISO_SMILES>
CCCC[C@H](CC)CNC(=O)C1=NC=CN=C1N

> <PUBCHEM_CACTVS_TPSA>
80.9

> <PUBCHEM_MONOISOTOPIC_WEIGHT>
250.179361

> <PUBCHEM_TOTAL_CHARGE>
0

> <PUBCHEM_HEAVY_ATOM_COUNT>
18

> <PUBCHEM_ATOM_DEF_STEREO_COUNT>
1

> <PUBCHEM_ATOM_UDEF_STEREO_COUNT>
0

> <PUBCHEM_BOND_DEF_STEREO_COUNT>
0

> <PUBCHEM_BOND_UDEF_STEREO_COUNT>
0

> <PUBCHEM_ISOTOPIC_ATOM_COUNT>
0

> <PUBCHEM_COMPONENT_COUNT>
1

> <PUBCHEM_CACTVS_TAUTO_COUNT>
7

> <PUBCHEM_COORDINATE_TYPE>
1

> <PUBCHEM_BONDANNOTATIONS>
15  16  8

$$$$
