3989000
  CDK     1219141015

 49 50  0  0  0  0  0  0  0  0999 V2000
    6.3301   -3.3318    0.0000 S   0  0  0  0  0  0  0  0  0  0  0  0
    5.8301   -4.1978    0.0000 O   0  0  0  0  0  0  0  0  0  0  0  0
    6.8301   -2.4658    0.0000 O   0  0  0  0  0  0  0  0  0  0  0  0
    2.8660   -1.3318    0.0000 O   0  0  0  0  0  0  0  0  0  0  0  0
    6.3301    1.6682    0.0000 O   0  0  0  0  0  0  0  0  0  0  0  0
    8.7788    3.5046    0.0000 O   0  0  0  0  0  0  0  0  0  0  0  0
    6.3301   -0.3318    0.0000 O   0  0  0  0  0  0  0  0  0  0  0  0
    5.4641    3.1682    0.0000 O   0  0  0  0  0  0  0  0  0  0  0  0
    7.1962   -3.8318    0.0000 N   0  0  0  0  0  0  0  0  0  0  0  0
    4.5981   -0.3318    0.0000 N   0  0  0  0  0  0  0  0  0  0  0  0
    8.2788    4.3706    0.0000 N   0  0  0  0  0  0  0  0  0  0  0  0
    5.4641   -2.8318    0.0000 C   0  0  0  0  0  0  0  0  0  0  0  0
    5.4641   -1.8318    0.0000 C   0  0  0  0  0  0  0  0  0  0  0  0
    4.5981   -1.3318    0.0000 C   0  0  0  0  0  0  0  0  0  0  0  0
    4.5981   -3.3318    0.0000 C   0  0  0  0  0  0  0  0  0  0  0  0
    3.7320   -1.8318    0.0000 C   0  0  0  0  0  0  0  0  0  0  0  0
    3.7320   -2.8318    0.0000 C   0  0  0  0  0  0  0  0  0  0  0  0
    7.1962   -4.8318    0.0000 C   0  0  0  0  0  0  0  0  0  0  0  0
    8.0622   -3.3318    0.0000 C   0  0  0  0  0  0  0  0  0  0  0  0
    5.4641    0.1682    0.0000 C   0  0  0  0  0  0  0  0  0  0  0  0
    5.4641    1.1682    0.0000 C   0  0  0  0  0  0  0  0  0  0  0  0
    7.1962    3.1682    0.0000 C   0  0  0  0  0  0  0  0  0  0  0  0
    8.1097    2.7614    0.0000 C   0  0  0  0  0  0  0  0  0  0  0  0
    7.3007    4.1627    0.0000 C   0  0  0  0  0  0  0  0  0  0  0  0
    6.3301    2.6682    0.0000 C   0  0  0  0  0  0  0  0  0  0  0  0
    2.0000   -1.8318    0.0000 C   0  0  0  0  0  0  0  0  0  0  0  0
    8.3176    1.7833    0.0000 C   0  0  0  0  0  0  0  0  0  0  0  0
    6.5575    4.8318    0.0000 C   0  0  0  0  0  0  0  0  0  0  0  0
    6.0010   -1.5218    0.0000 H   0  0  0  0  0  0  0  0  0  0  0  0
    4.5981   -3.9518    0.0000 H   0  0  0  0  0  0  0  0  0  0  0  0
    3.1951   -3.1418    0.0000 H   0  0  0  0  0  0  0  0  0  0  0  0
    6.5762   -4.8318    0.0000 H   0  0  0  0  0  0  0  0  0  0  0  0
    7.1962   -5.4518    0.0000 H   0  0  0  0  0  0  0  0  0  0  0  0
    7.8162   -4.8318    0.0000 H   0  0  0  0  0  0  0  0  0  0  0  0
    8.3722   -3.8688    0.0000 H   0  0  0  0  0  0  0  0  0  0  0  0
    8.5991   -3.0218    0.0000 H   0  0  0  0  0  0  0  0  0  0  0  0
    7.7522   -2.7949    0.0000 H   0  0  0  0  0  0  0  0  0  0  0  0
    4.0611   -0.0218    0.0000 H   0  0  0  0  0  0  0  0  0  0  0  0
    5.2520    1.7508    0.0000 H   0  0  0  0  0  0  0  0  0  0  0  0
    4.8535    1.0605    0.0000 H   0  0  0  0  0  0  0  0  0  0  0  0
    7.7112    1.6544    0.0000 H   0  0  0  0  0  0  0  0  0  0  0  0
    8.4465    1.1768    0.0000 H   0  0  0  0  0  0  0  0  0  0  0  0
    8.9241    1.9122    0.0000 H   0  0  0  0  0  0  0  0  0  0  0  0
    6.9724    5.2926    0.0000 H   0  0  0  0  0  0  0  0  0  0  0  0
    6.0968    5.2467    0.0000 H   0  0  0  0  0  0  0  0  0  0  0  0
    6.1427    4.3711    0.0000 H   0  0  0  0  0  0  0  0  0  0  0  0
    1.6900   -1.2949    0.0000 H   0  0  0  0  0  0  0  0  0  0  0  0
    1.4631   -2.1418    0.0000 H   0  0  0  0  0  0  0  0  0  0  0  0
    2.3100   -2.3688    0.0000 H   0  0  0  0  0  0  0  0  0  0  0  0
  1  2  2  0  0  0  0 
  1  3  2  0  0  0  0 
  1  9  1  0  0  0  0 
  1 12  1  0  0  0  0 
  4 16  1  0  0  0  0 
  4 26  1  0  0  0  0 
  5 21  1  0  0  0  0 
  5 25  1  0  0  0  0 
  6 11  1  0  0  0  0 
  6 23  1  0  0  0  0 
  7 20  2  0  0  0  0 
  8 25  2  0  0  0  0 
  9 18  1  0  0  0  0 
  9 19  1  0  0  0  0 
 10 14  1  0  0  0  0 
 10 20  1  0  0  0  0 
 10 38  1  0  0  0  0 
 11 24  2  0  0  0  0 
 12 13  2  0  0  0  0 
 12 15  1  0  0  0  0 
 13 14  1  0  0  0  0 
 13 29  1  0  0  0  0 
 14 16  2  0  0  0  0 
 15 17  2  0  0  0  0 
 15 30  1  0  0  0  0 
 16 17  1  0  0  0  0 
 17 31  1  0  0  0  0 
 18 32  1  0  0  0  0 
 18 33  1  0  0  0  0 
 18 34  1  0  0  0  0 
 19 35  1  0  0  0  0 
 19 36  1  0  0  0  0 
 19 37  1  0  0  0  0 
 20 21  1  0  0  0  0 
 21 39  1  0  0  0  0 
 21 40  1  0  0  0  0 
 22 23  2  0  0  0  0 
 22 24  1  0  0  0  0 
 22 25  1  0  0  0  0 
 23 27  1  0  0  0  0 
 24 28  1  0  0  0  0 
 26 47  1  0  0  0  0 
 26 48  1  0  0  0  0 
 26 49  1  0  0  0  0 
 27 41  1  0  0  0  0 
 27 42  1  0  0  0  0 
 27 43  1  0  0  0  0 
 28 44  1  0  0  0  0 
 28 45  1  0  0  0  0 
 28 46  1  0  0  0  0 
M  END
> <cdk:Title>
3989000

> <cdk:Remark>
null

> <PUBCHEM_COMPOUND_CID>
3989000

> <PUBCHEM_COMPOUND_CANONICALIZED>
1

> <PUBCHEM_CACTVS_COMPLEXITY>
664

> <PUBCHEM_CACTVS_HBOND_ACCEPTOR>
9

> <PUBCHEM_CACTVS_HBOND_DONOR>
1

> <PUBCHEM_CACTVS_ROTATABLE_BOND>
8

> <PUBCHEM_CACTVS_SUBSKEYS>
AAADceB7OABAAAAAAAAAAAAAAAAAAWAAAAAwAAAAAAAAAAABwAAAHgQUQAAADAyh3gYyz5LQBAKpA6XyWnLCCBAlIgAomDl/bNoOJz7MsZ+HMexn9BnY6UeQQAAKAIAAACAAEAABAAAAQAAgAAAAAAAAAA==

> <PUBCHEM_IUPAC_OPENEYE_NAME>
[2-[5-(dimethylsulfamoyl)-2-methoxy-anilino]-2-oxo-ethyl] 3,5-dimethylisoxazole-4-carboxylate

> <PUBCHEM_IUPAC_CAS_NAME>
3,5-dimethyl-4-isoxazolecarboxylic acid [2-[5-(dimethylsulfamoyl)-2-methoxyanilino]-2-oxoethyl] ester

> <PUBCHEM_IUPAC_NAME>
[2-[5-(dimethylsulfamoyl)-2-methoxyanilino]-2-oxoethyl] 3,5-dimethyl-1,2-oxazole-4-carboxylate

> <PUBCHEM_IUPAC_SYSTEMATIC_NAME>
[2-[[5-(dimethylsulfamoyl)-2-methoxy-phenyl]amino]-2-oxidanylidene-ethyl] 3,5-dimethyl-1,2-oxazole-4-carboxylate

> <PUBCHEM_IUPAC_TRADITIONAL_NAME>
3,5-dimethylisoxazole-4-carboxylic acid [2-[5-(dimethylsulfamoyl)-2-methoxy-anilino]-2-keto-ethyl] ester

> <PUBCHEM_IUPAC_INCHI>
InChI=1S/C17H21N3O7S/c1-10-16(11(2)27-19-10)17(22)26-9-15(21)18-13-8-12(6-7-14(13)25-5)28(23,24)20(3)4/h6-8H,9H2,1-5H3,(H,18,21)

> <PUBCHEM_IUPAC_INCHIKEY>
IFAIZZBALDDPJS-UHFFFAOYSA-N

> <PUBCHEM_XLOGP3_AA>
1

> <PUBCHEM_EXACT_MASS>
411.110021

> <PUBCHEM_MOLECULAR_FORMULA>
C17H21N3O7S

> <PUBCHEM_MOLECULAR_WEIGHT>
411.42954

> <PUBCHEM_OPENEYE_CAN_SMILES>
CC1=C(C(=NO1)C)C(=O)OCC(=O)NC2=C(C=CC(=C2)S(=O)(=O)N(C)C)OC

> <PUBCHEM_OPENEYE_ISO_SMILES>
CC1=C(C(=NO1)C)C(=O)OCC(=O)NC2=C(C=CC(=C2)S(=O)(=O)N(C)C)OC

> <PUBCHEM_CACTVS_TPSA>
136

> <PUBCHEM_MONOISOTOPIC_WEIGHT>
411.110021

> <PUBCHEM_TOTAL_CHARGE>
0

> <PUBCHEM_HEAVY_ATOM_COUNT>
28

> <PUBCHEM_ATOM_DEF_STEREO_COUNT>
0

> <PUBCHEM_ATOM_UDEF_STEREO_COUNT>
0

> <PUBCHEM_BOND_DEF_STEREO_COUNT>
0

> <PUBCHEM_BOND_UDEF_STEREO_COUNT>
0

> <PUBCHEM_ISOTOPIC_ATOM_COUNT>
0

> <PUBCHEM_COMPONENT_COUNT>
1

> <PUBCHEM_CACTVS_TAUTO_COUNT>
3

> <PUBCHEM_COORDINATE_TYPE>
1

> <PUBCHEM_BONDANNOTATIONS>
11  24  8

$$$$
