
  CDK     0202151413

 14 14  0  0  0  0  0  0  0  0999 V2000
    4.2608    2.7262    0.0000 O   0  0  0  0  0  0  0  0  0  0  0  0
    3.0852    1.1082    0.0000 O   0  0  0  0  0  0  0  0  0  0  0  0
    4.4865    0.0901    0.0000 N   0  0  0  0  0  0  0  0  0  0  0  0
    4.2077   -1.6700    0.0000 N   0  0  0  0  0  0  0  0  0  0  0  0
    2.5896   -1.6700    0.0000 N   0  0  0  0  0  0  0  0  0  0  0  0
    2.8987   -0.7189    0.0000 N   0  0  0  0  0  0  0  0  0  0  0  0
    4.2647   -3.7578    0.0000 N   0  0  0  0  0  0  0  0  0  0  0  0
    4.6675    1.8126    0.0000 C   0  0  3  0  0  0  0  0  0  0  0  0
    5.6620    1.7081    0.0000 C   0  0  0  0  0  0  0  0  0  0  0  0
    4.0797    1.0036    0.0000 C   0  0  0  0  0  0  0  0  0  0  0  0
    3.8987   -0.7189    0.0000 C   0  0  0  0  0  0  0  0  0  0  0  0
    3.3987   -2.2578    0.0000 C   0  0  0  0  0  0  0  0  0  0  0  0
    3.3987   -3.2578    0.0000 C   0  0  0  0  0  0  0  0  0  0  0  0
    2.5326   -3.7578    0.0000 C   0  0  0  0  0  0  0  0  0  0  0  0
  1  8  1  0  0  0  0 
  2 10  1  0  0  0  0 
  3 10  1  0  0  0  0 
  3 11  1  0  0  0  0 
  4 11  1  0  0  0  0 
  4 12  1  0  0  0  0 
  5  6  1  0  0  0  0 
  5 12  1  0  0  0  0 
  6 11  1  0  0  0  0 
  7 13  1  0  0  0  0 
  8  9  1  0  0  0  0 
  8 10  1  0  0  0  0 
 12 13  1  0  0  0  0 
 13 14  1  0  0  0  0 
M  END
> <PUBCHEM_COMPOUND_CID>
48497298

$$$$

  CDK     0202151413

 12 13  0  0  0  0  0  0  0  0999 V2000
    3.8660    1.4324    0.0000 O   0  0  0  0  0  0  0  0  0  0  0  0
    3.8660   -0.5676    0.0000 N   0  0  0  0  0  0  0  0  0  0  0  0
    3.0000    0.9324    0.0000 C   0  0  0  0  0  0  0  0  0  0  0  0
    3.0000   -0.0676    0.0000 C   0  0  0  0  0  0  0  0  0  0  0  0
    4.7320   -0.0676    0.0000 C   0  0  0  0  0  0  0  0  0  0  0  0
    4.7320    0.9324    0.0000 C   0  0  0  0  0  0  0  0  0  0  0  0
    5.6260   -0.6023    0.0000 C   0  0  0  0  0  0  0  0  0  0  0  0
    5.6260    1.4670    0.0000 C   0  0  0  0  0  0  0  0  0  0  0  0
    6.5321   -0.0885    0.0000 C   0  0  0  0  0  0  0  0  0  0  0  0
    3.8660   -1.5676    0.0000 C   0  0  0  0  0  0  0  0  0  0  0  0
    6.5321    0.9532    0.0000 C   0  0  0  0  0  0  0  0  0  0  0  0
    7.3962   -0.5918    0.0000 C   0  0  0  0  0  0  0  0  0  0  0  0
  1  3  1  0  0  0  0 
  1  6  1  0  0  0  0 
  2  4  1  0  0  0  0 
  2  5  1  0  0  0  0 
  2 10  1  0  0  0  0 
  3  4  1  0  0  0  0 
  5  6  1  0  0  0  0 
  5  7  1  0  0  0  0 
  6  8  1  0  0  0  0 
  7  9  1  0  0  0  0 
  8 11  1  0  0  0  0 
  9 11  1  0  0  0  0 
  9 12  1  0  0  0  0 
M  END
> <PUBCHEM_COMPOUND_CID>
28815830

$$$$

  CDK     0202151413

 14 14  0  0  0  0  0  0  0  0999 V2000
    5.7195   -0.6929    0.0000 O   0  0  0  0  0  0  0  0  0  0  0  0
    6.0875    2.8080    0.0000 O   0  0  0  0  0  0  0  0  0  0  0  0
    3.9595    2.3557    0.0000 O   0  0  0  0  0  0  0  0  0  0  0  0
    6.1808    1.0284    0.0000 N   0  0  0  0  0  0  0  0  0  0  0  0
    4.5981    0.6920    0.0000 N   0  0  0  0  0  0  0  0  0  0  0  0
    7.1753    0.9239    0.0000 C   0  0  0  0  0  0  0  0  0  0  0  0
    5.5116    0.2853    0.0000 C   0  0  0  0  0  0  0  0  0  0  0  0
    3.7320    0.1920    0.0000 C   0  0  0  0  0  0  0  0  0  0  0  0
    5.6808    1.8944    0.0000 C   0  0  0  0  0  0  0  0  0  0  0  0
    4.7026    1.6865    0.0000 C   0  0  0  0  0  0  0  0  0  0  0  0
    3.7320   -0.8080    0.0000 C   0  0  0  0  0  0  0  0  0  0  0  0
    2.8660   -1.3080    0.0000 C   0  0  0  0  0  0  0  0  0  0  0  0
    4.5981   -1.3080    0.0000 C   0  0  0  0  0  0  0  0  0  0  0  0
    2.8660   -2.3080    0.0000 C   0  0  0  0  0  0  0  0  0  0  0  0
  1  7  1  0  0  0  0 
  2  9  1  0  0  0  0 
  3 10  1  0  0  0  0 
  4  6  1  0  0  0  0 
  4  7  1  0  0  0  0 
  4  9  1  0  0  0  0 
  5  7  1  0  0  0  0 
  5  8  1  0  0  0  0 
  5 10  1  0  0  0  0 
  8 11  1  0  0  0  0 
  9 10  1  0  0  0  0 
 11 12  1  0  0  0  0 
 11 13  1  0  0  0  0 
 12 14  1  0  0  0  0 
M  END
> <PUBCHEM_COMPOUND_CID>
16379568

$$$$
