
  CDK     1227140956

  4  0  0  0  0  0  0  0  0  0999 V2000
    3.7320    0.7500    0.0000 Br  0  0  0  0  0  0  0  0  0  0  0  0
    2.0000    0.7500    0.0000 F   0  0  0  0  0  0  0  0  0  0  0  0
    2.8660   -0.7500    0.0000 O   0  0  0  0  0  0  0  0  0  0  0  0
    2.8660    0.2500    0.0000 C   0  0  0  0  0  0  0  0  0  0  0  0
M  END
> <PUBCHEM_COMPOUND_CID>
15796342

$$$$
