17684074
  CDK     1229141516

 45 47  0  0  0  0  0  0  0  0999 V2000
    9.3493    3.8103    0.0000 Cl  0  0  0  0  0  0  0  0  0  0  0  0
    6.3776    0.1650    0.0000 S   0  0  0  0  0  0  0  0  0  0  0  0
    8.0413    0.8036    0.0000 S   0  0  0  0  0  0  0  0  0  0  0  0
    4.5981   -3.9283    0.0000 O   0  0  0  0  0  0  0  0  0  0  0  0
    2.8660   -2.9283    0.0000 O   0  0  0  0  0  0  0  0  0  0  0  0
    4.8255    2.2353    0.0000 O   0  0  0  0  0  0  0  0  0  0  0  0
    6.5468    1.7741    0.0000 N   0  0  0  0  0  0  0  0  0  0  0  0
    6.9535    2.6877    0.0000 C   0  0  0  0  0  0  0  0  0  0  0  0
    5.4641    0.5717    0.0000 C   0  0  0  0  0  0  0  0  0  0  0  0
    5.5686    1.5662    0.0000 C   0  0  0  0  0  0  0  0  0  0  0  0
    4.5981   -0.9283    0.0000 C   0  0  0  0  0  0  0  0  0  0  0  0
    4.5981    0.0717    0.0000 C   0  0  0  0  0  0  0  0  0  0  0  0
    7.9480    2.7922    0.0000 C   0  0  0  0  0  0  0  0  0  0  0  0
    6.3657    3.4967    0.0000 C   0  0  0  0  0  0  0  0  0  0  0  0
    7.0468    0.9081    0.0000 C   0  0  0  0  0  0  0  0  0  0  0  0
    7.7670    4.5148    0.0000 C   0  0  0  0  0  0  0  0  0  0  0  0
    3.7320   -1.4283    0.0000 C   0  0  0  0  0  0  0  0  0  0  0  0
    3.7320   -2.4283    0.0000 C   0  0  0  0  0  0  0  0  0  0  0  0
    8.3548    3.7058    0.0000 C   0  0  0  0  0  0  0  0  0  0  0  0
    6.7725    4.4102    0.0000 C   0  0  0  0  0  0  0  0  0  0  0  0
    5.4641   -1.4283    0.0000 C   0  0  0  0  0  0  0  0  0  0  0  0
    4.5981   -2.9283    0.0000 C   0  0  0  0  0  0  0  0  0  0  0  0
    5.4641   -2.4283    0.0000 C   0  0  0  0  0  0  0  0  0  0  0  0
    8.1737    5.4283    0.0000 C   0  0  0  0  0  0  0  0  0  0  0  0
    5.4641   -4.4283    0.0000 C   0  0  0  0  0  0  0  0  0  0  0  0
    5.4641   -5.4283    0.0000 C   0  0  0  0  0  0  0  0  0  0  0  0
    2.0000   -2.4283    0.0000 C   0  0  0  0  0  0  0  0  0  0  0  0
    4.0611    0.3817    0.0000 H   0  0  0  0  0  0  0  0  0  0  0  0
    8.3125    2.2906    0.0000 H   0  0  0  0  0  0  0  0  0  0  0  0
    5.7491    3.4319    0.0000 H   0  0  0  0  0  0  0  0  0  0  0  0
    3.1951   -1.1183    0.0000 H   0  0  0  0  0  0  0  0  0  0  0  0
    6.4080    4.9118    0.0000 H   0  0  0  0  0  0  0  0  0  0  0  0
    6.0010   -1.1183    0.0000 H   0  0  0  0  0  0  0  0  0  0  0  0
    6.0010   -2.7383    0.0000 H   0  0  0  0  0  0  0  0  0  0  0  0
    8.7401    5.1761    0.0000 H   0  0  0  0  0  0  0  0  0  0  0  0
    8.4259    5.9947    0.0000 H   0  0  0  0  0  0  0  0  0  0  0  0
    7.6073    5.6805    0.0000 H   0  0  0  0  0  0  0  0  0  0  0  0
    6.0747   -4.5360    0.0000 H   0  0  0  0  0  0  0  0  0  0  0  0
    5.6762   -3.8457    0.0000 H   0  0  0  0  0  0  0  0  0  0  0  0
    4.8441   -5.4283    0.0000 H   0  0  0  0  0  0  0  0  0  0  0  0
    5.4641   -6.0483    0.0000 H   0  0  0  0  0  0  0  0  0  0  0  0
    6.0841   -5.4283    0.0000 H   0  0  0  0  0  0  0  0  0  0  0  0
    2.3100   -1.8914    0.0000 H   0  0  0  0  0  0  0  0  0  0  0  0
    1.4631   -2.1183    0.0000 H   0  0  0  0  0  0  0  0  0  0  0  0
    1.6900   -2.9652    0.0000 H   0  0  0  0  0  0  0  0  0  0  0  0
  1 19  1  0  0  0  0 
  2  9  1  0  0  0  0 
  2 15  1  0  0  0  0 
  3 15  2  0  0  0  0 
  4 22  1  0  0  0  0 
  4 25  1  0  0  0  0 
  5 18  1  0  0  0  0 
  5 27  1  0  0  0  0 
  6 10  2  0  0  0  0 
  7  8  1  0  0  0  0 
  7 10  1  0  0  0  0 
  7 15  1  0  0  0  0 
  8 13  2  0  0  0  0 
  8 14  1  0  0  0  0 
  9 10  1  0  0  0  0 
  9 12  2  0  0  0  0 
 11 12  1  0  0  0  0 
 11 17  2  0  0  0  0 
 11 21  1  0  0  0  0 
 12 28  1  0  0  0  0 
 13 19  1  0  0  0  0 
 13 29  1  0  0  0  0 
 14 20  2  0  0  0  0 
 14 30  1  0  0  0  0 
 16 19  2  0  0  0  0 
 16 20  1  0  0  0  0 
 16 24  1  0  0  0  0 
 17 18  1  0  0  0  0 
 17 31  1  0  0  0  0 
 18 22  2  0  0  0  0 
 20 32  1  0  0  0  0 
 21 23  2  0  0  0  0 
 21 33  1  0  0  0  0 
 22 23  1  0  0  0  0 
 23 34  1  0  0  0  0 
 24 35  1  0  0  0  0 
 24 36  1  0  0  0  0 
 24 37  1  0  0  0  0 
 25 26  1  0  0  0  0 
 25 38  1  0  0  0  0 
 25 39  1  0  0  0  0 
 26 40  1  0  0  0  0 
 26 41  1  0  0  0  0 
 26 42  1  0  0  0  0 
 27 43  1  0  0  0  0 
 27 44  1  0  0  0  0 
 27 45  1  0  0  0  0 
M  END
> <cdk:Title>
17684074

> <cdk:Remark>
null

> <PUBCHEM_COMPOUND_CID>
17684074

> <PUBCHEM_COMPOUND_CANONICALIZED>
1

> <PUBCHEM_CACTVS_COMPLEXITY>
600

> <PUBCHEM_CACTVS_HBOND_ACCEPTOR>
5

> <PUBCHEM_CACTVS_HBOND_DONOR>
0

> <PUBCHEM_CACTVS_ROTATABLE_BOND>
5

> <PUBCHEM_CACTVS_SUBSKEYS>
AAADceB6MABkAAAAAAAAAAAAAAAAAWAAAAAwYAAAAAAAAAABQAAAHgYAAAAADA6h2CIyxoMABAiMAiVSUACCCABhJxgIiAAG7sgNJiLFs5uGOCrkxBHK6YeQwBAOKAABAAIBQABQAAIABAKAAAAAAAAAAA==

> <PUBCHEM_IUPAC_OPENEYE_NAME>
(5Z)-3-(3-chloro-4-methyl-phenyl)-5-[(4-ethoxy-3-methoxy-phenyl)methylene]-2-thioxo-thiazolidin-4-one

> <PUBCHEM_IUPAC_CAS_NAME>
(5Z)-3-(3-chloro-4-methylphenyl)-5-[(4-ethoxy-3-methoxyphenyl)methylidene]-2-sulfanylidene-4-thiazolidinone

> <PUBCHEM_IUPAC_NAME>
(5Z)-3-(3-chloro-4-methylphenyl)-5-[(4-ethoxy-3-methoxyphenyl)methylidene]-2-sulfanylidene-1,3-thiazolidin-4-one

> <PUBCHEM_IUPAC_SYSTEMATIC_NAME>
(5Z)-3-(3-chloranyl-4-methyl-phenyl)-5-[(4-ethoxy-3-methoxy-phenyl)methylidene]-2-sulfanylidene-1,3-thiazolidin-4-one

> <PUBCHEM_IUPAC_TRADITIONAL_NAME>
(5Z)-3-(3-chloro-4-methyl-phenyl)-5-(4-ethoxy-3-methoxy-benzylidene)-2-thioxo-thiazolidin-4-one

> <PUBCHEM_IUPAC_INCHI>
InChI=1S/C20H18ClNO3S2/c1-4-25-16-8-6-13(9-17(16)24-3)10-18-19(23)22(20(26)27-18)14-7-5-12(2)15(21)11-14/h5-11H,4H2,1-3H3/b18-10-

> <PUBCHEM_IUPAC_INCHIKEY>
MGKAVKZDWYNJEH-ZDLGFXPLSA-N

> <PUBCHEM_XLOGP3_AA>
5.8

> <PUBCHEM_EXACT_MASS>
419.041663

> <PUBCHEM_MOLECULAR_FORMULA>
C20H18ClNO3S2

> <PUBCHEM_MOLECULAR_WEIGHT>
419.94482

> <PUBCHEM_OPENEYE_CAN_SMILES>
CCOC1=C(C=C(C=C1)C=C2C(=O)N(C(=S)S2)C3=CC(=C(C=C3)C)Cl)OC

> <PUBCHEM_OPENEYE_ISO_SMILES>
CCOC1=C(C=C(C=C1)/C=C\2/C(=O)N(C(=S)S2)C3=CC(=C(C=C3)C)Cl)OC

> <PUBCHEM_CACTVS_TPSA>
96.2

> <PUBCHEM_MONOISOTOPIC_WEIGHT>
419.041663

> <PUBCHEM_TOTAL_CHARGE>
0

> <PUBCHEM_HEAVY_ATOM_COUNT>
27

> <PUBCHEM_ATOM_DEF_STEREO_COUNT>
0

> <PUBCHEM_ATOM_UDEF_STEREO_COUNT>
0

> <PUBCHEM_BOND_DEF_STEREO_COUNT>
1

> <PUBCHEM_BOND_UDEF_STEREO_COUNT>
0

> <PUBCHEM_ISOTOPIC_ATOM_COUNT>
0

> <PUBCHEM_COMPONENT_COUNT>
1

> <PUBCHEM_CACTVS_TAUTO_COUNT>
1

> <PUBCHEM_COORDINATE_TYPE>
1

> <PUBCHEM_BONDANNOTATIONS>
11  17  8

$$$$
38653339
  CDK     1229141516

 44 46  0  0  0  0  0  0  0  0999 V2000
    2.0000    1.1054    0.0000 O   0  0  0  0  0  0  0  0  0  0  0  0
    5.8424   -0.8592    0.0000 O   0  0  0  0  0  0  0  0  0  0  0  0
    2.3503   -4.1380    0.0000 O   0  0  0  0  0  0  0  0  0  0  0  0
    3.4013    2.1235    0.0000 N   0  0  0  0  0  0  0  0  0  0  0  0
    4.0823   -1.1380    0.0000 N   0  0  0  0  0  0  0  0  0  0  0  0
    3.2202    3.8460    0.0000 C   0  0  0  0  0  0  0  0  0  0  0  0
    4.1538    4.2044    0.0000 C   0  0  0  0  0  0  0  0  0  0  0  0
    2.8618    4.7796    0.0000 C   0  0  0  0  0  0  0  0  0  0  0  0
    3.7954    5.1380    0.0000 C   0  0  0  0  0  0  0  0  0  0  0  0
    2.8135    2.9325    0.0000 C   0  0  0  0  0  0  0  0  0  0  0  0
    3.5823    0.4009    0.0000 C   0  0  2  0  0  0  0  0  0  0  0  0
    3.2733   -0.5502    0.0000 C   0  0  0  0  0  0  0  0  0  0  0  0
    4.5823    0.4009    0.0000 C   0  0  0  0  0  0  0  0  0  0  0  0
    2.9945    1.2099    0.0000 C   0  0  0  0  0  0  0  0  0  0  0  0
    4.8913   -0.5502    0.0000 C   0  0  0  0  0  0  0  0  0  0  0  0
    4.0823   -2.1380    0.0000 C   0  0  0  0  0  0  0  0  0  0  0  0
    3.2163   -2.6380    0.0000 C   0  0  0  0  0  0  0  0  0  0  0  0
    4.9483   -2.6380    0.0000 C   0  0  0  0  0  0  0  0  0  0  0  0
    3.2163   -3.6380    0.0000 C   0  0  0  0  0  0  0  0  0  0  0  0
    4.9483   -3.6380    0.0000 C   0  0  0  0  0  0  0  0  0  0  0  0
    4.0823   -4.1380    0.0000 C   0  0  0  0  0  0  0  0  0  0  0  0
    2.3503   -5.1380    0.0000 C   0  0  0  0  0  0  0  0  0  0  0  0
    2.6004    3.8622    0.0000 H   0  0  0  0  0  0  0  0  0  0  0  0
    4.3760    3.6256    0.0000 H   0  0  0  0  0  0  0  0  0  0  0  0
    4.7326    4.4266    0.0000 H   0  0  0  0  0  0  0  0  0  0  0  0
    2.6397    5.3584    0.0000 H   0  0  0  0  0  0  0  0  0  0  0  0
    2.2830    4.5574    0.0000 H   0  0  0  0  0  0  0  0  0  0  0  0
    4.3742    5.3602    0.0000 H   0  0  0  0  0  0  0  0  0  0  0  0
    3.5732    5.7168    0.0000 H   0  0  0  0  0  0  0  0  0  0  0  0
    2.2995    3.2792    0.0000 H   0  0  0  0  0  0  0  0  0  0  0  0
    2.3828    2.4865    0.0000 H   0  0  0  0  0  0  0  0  0  0  0  0
    3.8638    0.9533    0.0000 H   0  0  0  0  0  0  0  0  0  0  0  0
    2.7069   -0.2980    0.0000 H   0  0  0  0  0  0  0  0  0  0  0  0
    2.9633   -1.0871    0.0000 H   0  0  0  0  0  0  0  0  0  0  0  0
    4.0179    2.1883    0.0000 H   0  0  0  0  0  0  0  0  0  0  0  0
    5.1888    0.5298    0.0000 H   0  0  0  0  0  0  0  0  0  0  0  0
    4.5175    1.0175    0.0000 H   0  0  0  0  0  0  0  0  0  0  0  0
    2.6794   -2.3280    0.0000 H   0  0  0  0  0  0  0  0  0  0  0  0
    5.4853   -2.3280    0.0000 H   0  0  0  0  0  0  0  0  0  0  0  0
    5.4853   -3.9480    0.0000 H   0  0  0  0  0  0  0  0  0  0  0  0
    4.0823   -4.7580    0.0000 H   0  0  0  0  0  0  0  0  0  0  0  0
    1.7303   -5.1380    0.0000 H   0  0  0  0  0  0  0  0  0  0  0  0
    2.3503   -5.7580    0.0000 H   0  0  0  0  0  0  0  0  0  0  0  0
    2.9703   -5.1380    0.0000 H   0  0  0  0  0  0  0  0  0  0  0  0
  1 14  2  0  0  0  0 
  2 15  2  0  0  0  0 
  3 19  1  0  0  0  0 
  3 22  1  0  0  0  0 
  4 10  1  0  0  0  0 
  4 14  1  0  0  0  0 
  4 35  1  0  0  0  0 
  5 12  1  0  0  0  0 
  5 15  1  0  0  0  0 
  5 16  1  0  0  0  0 
  6  7  1  0  0  0  0 
  6  8  1  0  0  0  0 
  6 10  1  0  0  0  0 
  6 23  1  0  0  0  0 
  7  9  1  0  0  0  0 
  7 24  1  0  0  0  0 
  7 25  1  0  0  0  0 
  8  9  1  0  0  0  0 
  8 26  1  0  0  0  0 
  8 27  1  0  0  0  0 
  9 28  1  0  0  0  0 
  9 29  1  0  0  0  0 
 10 30  1  0  0  0  0 
 10 31  1  0  0  0  0 
 11 12  1  0  0  0  0 
 11 13  1  0  0  0  0 
 11 14  1  1  0  0  0 
 11 32  1  0  0  0  0 
 12 33  1  0  0  0  0 
 12 34  1  0  0  0  0 
 13 15  1  0  0  0  0 
 13 36  1  0  0  0  0 
 13 37  1  0  0  0  0 
 16 17  2  0  0  0  0 
 16 18  1  0  0  0  0 
 17 19  1  0  0  0  0 
 17 38  1  0  0  0  0 
 18 20  2  0  0  0  0 
 18 39  1  0  0  0  0 
 19 21  2  0  0  0  0 
 20 21  1  0  0  0  0 
 20 40  1  0  0  0  0 
 21 41  1  0  0  0  0 
 22 42  1  0  0  0  0 
 22 43  1  0  0  0  0 
 22 44  1  0  0  0  0 
M  END
> <cdk:Title>
38653339

> <cdk:Remark>
null

> <PUBCHEM_COMPOUND_CID>
38653339

> <PUBCHEM_COMPOUND_CANONICALIZED>
1

> <PUBCHEM_CACTVS_COMPLEXITY>
422

> <PUBCHEM_CACTVS_HBOND_ACCEPTOR>
3

> <PUBCHEM_CACTVS_HBOND_DONOR>
1

> <PUBCHEM_CACTVS_ROTATABLE_BOND>
5

> <PUBCHEM_CACTVS_SUBSKEYS>
AAADceB7MAAAAAAAAAAAAAAAAABgAWAAAAAwAAAAAAAAAAABAAAAHgAQAAAADQzBkAYyxoPABACIACVSUACCCAAhIgAIiIEObIgMJjrE8ZuEMChm1hnI6AeVUAMIAAAAAgAAAAAAAAAEAAAAAAAAAAAAAA==

> <PUBCHEM_IUPAC_OPENEYE_NAME>
(3S)-N-(cyclobutylmethyl)-1-(3-methoxyphenyl)-5-oxo-pyrrolidine-3-carboxamide

> <PUBCHEM_IUPAC_CAS_NAME>
(3S)-N-(cyclobutylmethyl)-1-(3-methoxyphenyl)-5-oxo-3-pyrrolidinecarboxamide

> <PUBCHEM_IUPAC_NAME>
(3S)-N-(cyclobutylmethyl)-1-(3-methoxyphenyl)-5-oxopyrrolidine-3-carboxamide

> <PUBCHEM_IUPAC_SYSTEMATIC_NAME>
(3S)-N-(cyclobutylmethyl)-1-(3-methoxyphenyl)-5-oxidanylidene-pyrrolidine-3-carboxamide

> <PUBCHEM_IUPAC_TRADITIONAL_NAME>
(3S)-N-(cyclobutylmethyl)-5-keto-1-(3-methoxyphenyl)pyrrolidine-3-carboxamide

> <PUBCHEM_IUPAC_INCHI>
InChI=1S/C17H22N2O3/c1-22-15-7-3-6-14(9-15)19-11-13(8-16(19)20)17(21)18-10-12-4-2-5-12/h3,6-7,9,12-13H,2,4-5,8,10-11H2,1H3,(H,18,21)/t13-/m0/s1

> <PUBCHEM_IUPAC_INCHIKEY>
AQSCCLMMZGEBEN-ZDUSSCGKSA-N

> <PUBCHEM_XLOGP3_AA>
1.5

> <PUBCHEM_EXACT_MASS>
302.163043

> <PUBCHEM_MOLECULAR_FORMULA>
C17H22N2O3

> <PUBCHEM_MOLECULAR_WEIGHT>
302.36818

> <PUBCHEM_OPENEYE_CAN_SMILES>
COC1=CC=CC(=C1)N2CC(CC2=O)C(=O)NCC3CCC3

> <PUBCHEM_OPENEYE_ISO_SMILES>
COC1=CC=CC(=C1)N2C[C@H](CC2=O)C(=O)NCC3CCC3

> <PUBCHEM_CACTVS_TPSA>
58.6

> <PUBCHEM_MONOISOTOPIC_WEIGHT>
302.163043

> <PUBCHEM_TOTAL_CHARGE>
0

> <PUBCHEM_HEAVY_ATOM_COUNT>
22

> <PUBCHEM_ATOM_DEF_STEREO_COUNT>
1

> <PUBCHEM_ATOM_UDEF_STEREO_COUNT>
0

> <PUBCHEM_BOND_DEF_STEREO_COUNT>
0

> <PUBCHEM_BOND_UDEF_STEREO_COUNT>
0

> <PUBCHEM_ISOTOPIC_ATOM_COUNT>
0

> <PUBCHEM_COMPONENT_COUNT>
1

> <PUBCHEM_CACTVS_TAUTO_COUNT>
4

> <PUBCHEM_COORDINATE_TYPE>
1

> <PUBCHEM_BONDANNOTATIONS>
11  14  5

$$$$
20835590
  CDK     1229141516

 40 42  0  0  0  0  0  0  0  0999 V2000
    5.4641   -1.8319    0.0000 O   0  0  0  0  0  0  0  0  0  0  0  0
    4.5981   -1.3319    0.0000 O   0  0  0  0  0  0  0  0  0  0  0  0
   11.5942   -1.3594    0.0000 O   0  0  0  0  0  0  0  0  0  0  0  0
   10.7224   -2.8560    0.0000 O   0  0  0  0  0  0  0  0  0  0  0  0
    2.0000    3.1681    0.0000 O   0  0  0  0  0  0  0  0  0  0  0  0
    3.7320    3.1681    0.0000 O   0  0  0  0  0  0  0  0  0  0  0  0
    7.1962   -1.8319    0.0000 N   0  0  0  0  0  0  0  0  0  0  0  0
    7.1962    0.1681    0.0000 N   0  0  0  0  0  0  0  0  0  0  0  0
   10.7263   -1.8560    0.0000 N   0  0  0  0  0  0  0  0  0  0  0  0
    2.8660    2.6681    0.0000 N   0  0  0  0  0  0  0  0  0  0  0  0
    6.3301   -1.3319    0.0000 C   0  0  3  0  0  0  0  0  0  0  0  0
    8.0622   -1.3319    0.0000 C   0  0  0  0  0  0  0  0  0  0  0  0
    6.3301   -0.3319    0.0000 C   0  0  0  0  0  0  0  0  0  0  0  0
    8.0622   -0.3319    0.0000 C   0  0  0  0  0  0  0  0  0  0  0  0
    8.9561   -1.8666    0.0000 C   0  0  0  0  0  0  0  0  0  0  0  0
    8.9561    0.2028    0.0000 C   0  0  0  0  0  0  0  0  0  0  0  0
    5.4641    0.1681    0.0000 C   0  0  0  0  0  0  0  0  0  0  0  0
    9.8622   -1.3527    0.0000 C   0  0  0  0  0  0  0  0  0  0  0  0
    9.8622   -0.3111    0.0000 C   0  0  0  0  0  0  0  0  0  0  0  0
    4.5981   -0.3319    0.0000 C   0  0  0  0  0  0  0  0  0  0  0  0
    3.7320    0.1681    0.0000 C   0  0  0  0  0  0  0  0  0  0  0  0
    3.7320    1.1681    0.0000 C   0  0  0  0  0  0  0  0  0  0  0  0
    2.8660   -0.3319    0.0000 C   0  0  0  0  0  0  0  0  0  0  0  0
    2.8660    1.6681    0.0000 C   0  0  0  0  0  0  0  0  0  0  0  0
    2.0000    0.1681    0.0000 C   0  0  0  0  0  0  0  0  0  0  0  0
    2.0000    1.1681    0.0000 C   0  0  0  0  0  0  0  0  0  0  0  0
    5.7932   -1.0219    0.0000 H   0  0  0  0  0  0  0  0  0  0  0  0
    7.1962   -2.4519    0.0000 H   0  0  0  0  0  0  0  0  0  0  0  0
    7.1962    0.7881    0.0000 H   0  0  0  0  0  0  0  0  0  0  0  0
    8.9490   -2.4865    0.0000 H   0  0  0  0  0  0  0  0  0  0  0  0
    8.9490    0.8227    0.0000 H   0  0  0  0  0  0  0  0  0  0  0  0
    5.4641    0.7881    0.0000 H   0  0  0  0  0  0  0  0  0  0  0  0
   10.3979    0.0010    0.0000 H   0  0  0  0  0  0  0  0  0  0  0  0
    5.4641   -2.4519    0.0000 H   0  0  0  0  0  0  0  0  0  0  0  0
    4.2690    1.4781    0.0000 H   0  0  0  0  0  0  0  0  0  0  0  0
    2.8660   -0.9519    0.0000 H   0  0  0  0  0  0  0  0  0  0  0  0
    1.4631   -0.1419    0.0000 H   0  0  0  0  0  0  0  0  0  0  0  0
    1.4631    1.4781    0.0000 H   0  0  0  0  0  0  0  0  0  0  0  0
   11.2582   -3.1681    0.0000 H   0  0  0  0  0  0  0  0  0  0  0  0
   12.1300   -1.6714    0.0000 H   0  0  0  0  0  0  0  0  0  0  0  0
  1 11  1  0  0  0  0 
  1 34  1  0  0  0  0 
  2 20  2  0  0  0  0 
  3  9  1  0  0  0  0 
  3 40  1  0  0  0  0 
  4  9  1  0  0  0  0 
  4 39  1  0  0  0  0 
  5 10  1  0  0  0  0 
  6 10  1  0  0  0  0 
  7 11  1  0  0  0  0 
  7 12  1  0  0  0  0 
  7 28  1  0  0  0  0 
  8 13  1  0  0  0  0 
  8 14  1  0  0  0  0 
  8 29  1  0  0  0  0 
  9 18  1  0  0  0  0 
 10 24  1  0  0  0  0 
 11 13  1  0  0  0  0 
 11 27  1  0  0  0  0 
 12 14  2  0  0  0  0 
 12 15  1  0  0  0  0 
 13 17  2  0  0  0  0 
 14 16  1  0  0  0  0 
 15 18  2  0  0  0  0 
 15 30  1  0  0  0  0 
 16 19  2  0  0  0  0 
 16 31  1  0  0  0  0 
 17 20  1  0  0  0  0 
 17 32  1  0  0  0  0 
 18 19  1  0  0  0  0 
 19 33  1  0  0  0  0 
 20 21  1  0  0  0  0 
 21 22  2  0  0  0  0 
 21 23  1  0  0  0  0 
 22 24  1  0  0  0  0 
 22 35  1  0  0  0  0 
 23 25  2  0  0  0  0 
 23 36  1  0  0  0  0 
 24 26  2  0  0  0  0 
 25 26  1  0  0  0  0 
 25 37  1  0  0  0  0 
 26 38  1  0  0  0  0 
M  CHG  1   5  -1
M  CHG  1   6  -1
M  END
> <cdk:Title>
20835590

> <cdk:Remark>
null

> <PUBCHEM_COMPOUND_CID>
20835590

> <PUBCHEM_COMPOUND_CANONICALIZED>
1

> <PUBCHEM_CACTVS_COMPLEXITY>
543

> <PUBCHEM_CACTVS_HBOND_ACCEPTOR>
10

> <PUBCHEM_CACTVS_HBOND_DONOR>
5

> <PUBCHEM_CACTVS_ROTATABLE_BOND>
3

> <PUBCHEM_CACTVS_SUBSKEYS>
AAADccB7uAAAAAAAAAAAAAAAAAAAAAAAAAA8YIAAAAAAAACxQAAAHgAUCAAADAzhmAYwwILQQgCIAqRSQACCAAAlAgAoiIEIdMkKdDLA1dGUMQhgkADY2ccciICOAACAQAQAACAAAQCACAAAQAAAAAAAAA==

> <PUBCHEM_IUPAC_OPENEYE_NAME>
(2E)-2-[6-(dihydroxyamino)-3-hydroxy-3,4-dihydro-1H-quinoxalin-2-ylidene]-1-[3-(dioxidoamino)phenyl]ethanone

> <PUBCHEM_IUPAC_CAS_NAME>
(2E)-2-[6-(dihydroxyamino)-3-hydroxy-3,4-dihydro-1H-quinoxalin-2-ylidene]-1-[3-(dioxidoamino)phenyl]ethanone

> <PUBCHEM_IUPAC_NAME>
(2E)-2-[6-(dihydroxyamino)-3-hydroxy-3,4-dihydro-1H-quinoxalin-2-ylidene]-1-[3-(dioxidoamino)phenyl]ethanone

> <PUBCHEM_IUPAC_SYSTEMATIC_NAME>
(2E)-1-[3-[bis(oxidanidyl)amino]phenyl]-2-[6-[bis(oxidanyl)amino]-3-oxidanyl-3,4-dihydro-1H-quinoxalin-2-ylidene]ethanone

> <PUBCHEM_IUPAC_TRADITIONAL_NAME>
(2E)-2-[6-(dihydroxyamino)-3-hydroxy-3,4-dihydro-1H-quinoxalin-2-ylidene]-1-[3-(dioxidoamino)phenyl]ethanone

> <PUBCHEM_IUPAC_INCHI>
InChI=1S/C16H14N4O6/c21-15(9-2-1-3-10(6-9)19(23)24)8-14-16(22)18-13-7-11(20(25)26)4-5-12(13)17-14/h1-8,16-18,22,25-26H/q-2/b14-8+

> <PUBCHEM_IUPAC_INCHIKEY>
GIARUTRDNGDMHL-RIYZIHGNSA-N

> <PUBCHEM_XLOGP3_AA>
0.5

> <PUBCHEM_EXACT_MASS>
358.091334

> <PUBCHEM_MOLECULAR_FORMULA>
C16H14N4O6-2

> <PUBCHEM_MOLECULAR_WEIGHT>
358.30556

> <PUBCHEM_OPENEYE_CAN_SMILES>
C1=CC(=CC(=C1)N([O-])[O-])C(=O)C=C2C(NC3=C(N2)C=CC(=C3)N(O)O)O

> <PUBCHEM_OPENEYE_ISO_SMILES>
C1=CC(=CC(=C1)N([O-])[O-])C(=O)/C=C/2\C(NC3=C(N2)C=CC(=C3)N(O)O)O

> <PUBCHEM_CACTVS_TPSA>
154

> <PUBCHEM_MONOISOTOPIC_WEIGHT>
358.091334

> <PUBCHEM_TOTAL_CHARGE>
-2

> <PUBCHEM_HEAVY_ATOM_COUNT>
26

> <PUBCHEM_ATOM_DEF_STEREO_COUNT>
0

> <PUBCHEM_ATOM_UDEF_STEREO_COUNT>
1

> <PUBCHEM_BOND_DEF_STEREO_COUNT>
1

> <PUBCHEM_BOND_UDEF_STEREO_COUNT>
0

> <PUBCHEM_ISOTOPIC_ATOM_COUNT>
0

> <PUBCHEM_COMPONENT_COUNT>
1

> <PUBCHEM_CACTVS_TAUTO_COUNT>
9

> <PUBCHEM_COORDINATE_TYPE>
1

> <PUBCHEM_BONDANNOTATIONS>
11  1  3

$$$$
56578785
  CDK     1229141516

 44 46  0  0  0  0  0  0  0  0999 V2000
    2.7680    2.5138    0.0000 Cl  0  0  0  0  0  0  0  0  0  0  0  0
    3.0000    0.6478    0.0000 S   0  0  0  0  0  0  0  0  0  0  0  0
    3.0000   -0.3522    0.0000 O   0  0  0  0  0  0  0  0  0  0  0  0
    3.0000    1.6477    0.0000 O   0  0  0  0  0  0  0  0  0  0  0  0
    5.5001   -3.6824    0.0000 O   0  0  0  0  0  0  0  0  0  0  0  0
    7.0001   -2.8163    0.0000 O   0  0  0  0  0  0  0  0  0  0  0  0
    4.0000    0.6477    0.0000 N   0  0  3  0  0  0  0  0  0  0  0  0
    6.2600    2.4791    0.0000 N   0  0  0  0  0  0  0  0  0  0  0  0
    4.5000    1.5138    0.0000 C   0  0  0  0  0  0  0  0  0  0  0  0
    4.5000    2.5138    0.0000 C   0  0  0  0  0  0  0  0  0  0  0  0
    4.5000   -0.2183    0.0000 C   0  0  0  0  0  0  0  0  0  0  0  0
    5.3660    3.0138    0.0000 C   0  0  0  0  0  0  0  0  0  0  0  0
    5.3660    4.0138    0.0000 C   0  0  0  0  0  0  0  0  0  0  0  0
    3.6340    3.0138    0.0000 C   0  0  0  0  0  0  0  0  0  0  0  0
    2.0000    0.6477    0.0000 C   0  0  0  0  0  0  0  0  0  0  0  0
    5.5001   -0.2183    0.0000 C   0  0  0  0  0  0  0  0  0  0  0  0
    4.0000   -1.0843    0.0000 C   0  0  0  0  0  0  0  0  0  0  0  0
    4.5000    4.5138    0.0000 C   0  0  0  0  0  0  0  0  0  0  0  0
    3.6340    4.0138    0.0000 C   0  0  0  0  0  0  0  0  0  0  0  0
    6.0001   -1.0843    0.0000 C   0  0  0  0  0  0  0  0  0  0  0  0
    4.5000   -1.9504    0.0000 C   0  0  0  0  0  0  0  0  0  0  0  0
    6.2600    4.5484    0.0000 C   0  0  0  0  0  0  0  0  0  0  0  0
    5.5001   -1.9503    0.0000 C   0  0  0  0  0  0  0  0  0  0  0  0
    7.1660    4.0346    0.0000 C   0  0  0  0  0  0  0  0  0  0  0  0
    7.1660    2.9929    0.0000 C   0  0  0  0  0  0  0  0  0  0  0  0
    6.0001   -2.8164    0.0000 C   0  0  0  0  0  0  0  0  0  0  0  0
    6.0001   -4.5484    0.0000 C   0  0  0  0  0  0  0  0  0  0  0  0
    4.8985    1.0388    0.0000 H   0  0  0  0  0  0  0  0  0  0  0  0
    3.9011    1.6742    0.0000 H   0  0  0  0  0  0  0  0  0  0  0  0
    2.0000    1.2677    0.0000 H   0  0  0  0  0  0  0  0  0  0  0  0
    1.3800    0.6477    0.0000 H   0  0  0  0  0  0  0  0  0  0  0  0
    2.0000    0.0277    0.0000 H   0  0  0  0  0  0  0  0  0  0  0  0
    5.8101    0.3187    0.0000 H   0  0  0  0  0  0  0  0  0  0  0  0
    3.3800   -1.0843    0.0000 H   0  0  0  0  0  0  0  0  0  0  0  0
    4.5000    5.1338    0.0000 H   0  0  0  0  0  0  0  0  0  0  0  0
    3.0970    4.3238    0.0000 H   0  0  0  0  0  0  0  0  0  0  0  0
    6.6201   -1.0843    0.0000 H   0  0  0  0  0  0  0  0  0  0  0  0
    4.1900   -2.4873    0.0000 H   0  0  0  0  0  0  0  0  0  0  0  0
    6.2528    5.1684    0.0000 H   0  0  0  0  0  0  0  0  0  0  0  0
    7.7018    4.3466    0.0000 H   0  0  0  0  0  0  0  0  0  0  0  0
    7.7018    2.6809    0.0000 H   0  0  0  0  0  0  0  0  0  0  0  0
    5.4631   -4.8584    0.0000 H   0  0  0  0  0  0  0  0  0  0  0  0
    6.3101   -5.0853    0.0000 H   0  0  0  0  0  0  0  0  0  0  0  0
    6.5370   -4.2384    0.0000 H   0  0  0  0  0  0  0  0  0  0  0  0
  1 14  1  0  0  0  0 
  2  3  2  0  0  0  0 
  2  4  2  0  0  0  0 
  2  7  1  0  0  0  0 
  2 15  1  0  0  0  0 
  5 26  1  0  0  0  0 
  5 27  1  0  0  0  0 
  6 26  2  0  0  0  0 
  7  9  1  0  0  0  0 
  7 11  1  0  0  0  0 
  8 12  1  0  0  0  0 
  8 25  2  0  0  0  0 
  9 10  1  0  0  0  0 
  9 28  1  0  0  0  0 
  9 29  1  0  0  0  0 
 10 12  1  0  0  0  0 
 10 14  2  0  0  0  0 
 11 16  2  0  0  0  0 
 11 17  1  0  0  0  0 
 12 13  2  0  0  0  0 
 13 18  1  0  0  0  0 
 13 22  1  0  0  0  0 
 14 19  1  0  0  0  0 
 15 30  1  0  0  0  0 
 15 31  1  0  0  0  0 
 15 32  1  0  0  0  0 
 16 20  1  0  0  0  0 
 16 33  1  0  0  0  0 
 17 21  2  0  0  0  0 
 17 34  1  0  0  0  0 
 18 19  2  0  0  0  0 
 18 35  1  0  0  0  0 
 19 36  1  0  0  0  0 
 20 23  2  0  0  0  0 
 20 37  1  0  0  0  0 
 21 23  1  0  0  0  0 
 21 38  1  0  0  0  0 
 22 24  2  0  0  0  0 
 22 39  1  0  0  0  0 
 23 26  1  0  0  0  0 
 24 25  1  0  0  0  0 
 24 40  1  0  0  0  0 
 25 41  1  0  0  0  0 
 27 42  1  0  0  0  0 
 27 43  1  0  0  0  0 
 27 44  1  0  0  0  0 
M  END
> <cdk:Title>
56578785

> <cdk:Remark>
null

> <PUBCHEM_COMPOUND_CID>
56578785

> <PUBCHEM_COMPOUND_CANONICALIZED>
1

> <PUBCHEM_CACTVS_COMPLEXITY>
616

> <PUBCHEM_CACTVS_HBOND_ACCEPTOR>
6

> <PUBCHEM_CACTVS_HBOND_DONOR>
0

> <PUBCHEM_CACTVS_ROTATABLE_BOND>
6

> <PUBCHEM_CACTVS_SUBSKEYS>
AAADceB7OABEAAAAAAAAAAAAAAAAAAAAAAA8YIAAAAAAAACx9AAAHgYAQAAADArBnia+yPIIFAKoAzT3THCCgCA1ByAI2CE4btgIJvLB95mEMQhkwAHI6YeY2eOeDAACAAIDAAAYAAQABAYAAAAAAAAAAA==

> <PUBCHEM_IUPAC_OPENEYE_NAME>
methyl 4-[(7-chloro-8-quinolyl)methyl-methylsulfonyl-amino]benzoate

> <PUBCHEM_IUPAC_CAS_NAME>
4-[(7-chloro-8-quinolinyl)methyl-methylsulfonylamino]benzoic acid methyl ester

> <PUBCHEM_IUPAC_NAME>
methyl 4-[(7-chloroquinolin-8-yl)methyl-methylsulfonylamino]benzoate

> <PUBCHEM_IUPAC_SYSTEMATIC_NAME>
methyl 4-[(7-chloranylquinolin-8-yl)methyl-methylsulfonyl-amino]benzoate

> <PUBCHEM_IUPAC_TRADITIONAL_NAME>
4-[(7-chloro-8-quinolyl)methyl-mesyl-amino]benzoic acid methyl ester

> <PUBCHEM_IUPAC_INCHI>
InChI=1S/C19H17ClN2O4S/c1-26-19(23)14-5-8-15(9-6-14)22(27(2,24)25)12-16-17(20)10-7-13-4-3-11-21-18(13)16/h3-11H,12H2,1-2H3

> <PUBCHEM_IUPAC_INCHIKEY>
MXLRDPMZKCCUSK-UHFFFAOYSA-N

> <PUBCHEM_XLOGP3_AA>
3.3

> <PUBCHEM_EXACT_MASS>
404.059756

> <PUBCHEM_MOLECULAR_FORMULA>
C19H17ClN2O4S

> <PUBCHEM_MOLECULAR_WEIGHT>
404.86728

> <PUBCHEM_OPENEYE_CAN_SMILES>
COC(=O)C1=CC=C(C=C1)N(CC2=C(C=CC3=C2N=CC=C3)Cl)S(=O)(=O)C

> <PUBCHEM_OPENEYE_ISO_SMILES>
COC(=O)C1=CC=C(C=C1)N(CC2=C(C=CC3=C2N=CC=C3)Cl)S(=O)(=O)C

> <PUBCHEM_CACTVS_TPSA>
85

> <PUBCHEM_MONOISOTOPIC_WEIGHT>
404.059756

> <PUBCHEM_TOTAL_CHARGE>
0

> <PUBCHEM_HEAVY_ATOM_COUNT>
27

> <PUBCHEM_ATOM_DEF_STEREO_COUNT>
0

> <PUBCHEM_ATOM_UDEF_STEREO_COUNT>
0

> <PUBCHEM_BOND_DEF_STEREO_COUNT>
0

> <PUBCHEM_BOND_UDEF_STEREO_COUNT>
0

> <PUBCHEM_ISOTOPIC_ATOM_COUNT>
0

> <PUBCHEM_COMPONENT_COUNT>
1

> <PUBCHEM_CACTVS_TAUTO_COUNT>
1

> <PUBCHEM_COORDINATE_TYPE>
1

> <PUBCHEM_BONDANNOTATIONS>
10  12  8

$$$$
