29881511
  CDK     1229141458

 45 47  0  0  0  0  0  0  0  0999 V2000
    4.5981    3.5670    0.0000 O   0  0  0  0  0  0  0  0  0  0  0  0
    2.0000   -3.9330    0.0000 O   0  0  0  0  0  0  0  0  0  0  0  0
    5.4641    2.0670    0.0000 N   0  0  0  0  0  0  0  0  0  0  0  0
    3.7320   -2.9330    0.0000 N   0  0  0  0  0  0  0  0  0  0  0  0
    7.3301    3.5670    0.0000 C   0  0  2  0  0  0  0  0  0  0  0  0
    6.3301    3.5670    0.0000 C   0  0  2  0  0  0  0  0  0  0  0  0
    6.8301    4.4330    0.0000 C   0  0  0  0  0  0  0  0  0  0  0  0
    8.1962    3.0670    0.0000 C   0  0  0  0  0  0  0  0  0  0  0  0
    5.4641    3.0670    0.0000 C   0  0  0  0  0  0  0  0  0  0  0  0
    4.5981    1.5670    0.0000 C   0  0  0  0  0  0  0  0  0  0  0  0
    4.5981    0.5670    0.0000 C   0  0  0  0  0  0  0  0  0  0  0  0
    4.5981   -2.4330    0.0000 C   0  0  0  0  0  0  0  0  0  0  0  0
    2.8660   -2.4330    0.0000 C   0  0  0  0  0  0  0  0  0  0  0  0
    3.7320   -3.9330    0.0000 C   0  0  0  0  0  0  0  0  0  0  0  0
    4.5981   -1.4330    0.0000 C   0  0  0  0  0  0  0  0  0  0  0  0
    2.8660   -4.4330    0.0000 C   0  0  0  0  0  0  0  0  0  0  0  0
    2.0000   -2.9330    0.0000 C   0  0  0  0  0  0  0  0  0  0  0  0
    3.7320    0.0670    0.0000 C   0  0  0  0  0  0  0  0  0  0  0  0
    5.4641    0.0670    0.0000 C   0  0  0  0  0  0  0  0  0  0  0  0
    3.7320   -0.9330    0.0000 C   0  0  0  0  0  0  0  0  0  0  0  0
    5.4641   -0.9330    0.0000 C   0  0  0  0  0  0  0  0  0  0  0  0
    7.7685    4.0054    0.0000 H   0  0  0  0  0  0  0  0  0  0  0  0
    5.8917    4.0054    0.0000 H   0  0  0  0  0  0  0  0  0  0  0  0
    7.3051    4.8315    0.0000 H   0  0  0  0  0  0  0  0  0  0  0  0
    6.3552    4.8315    0.0000 H   0  0  0  0  0  0  0  0  0  0  0  0
    7.8862    2.5300    0.0000 H   0  0  0  0  0  0  0  0  0  0  0  0
    8.7331    2.7570    0.0000 H   0  0  0  0  0  0  0  0  0  0  0  0
    8.5062    3.6039    0.0000 H   0  0  0  0  0  0  0  0  0  0  0  0
    6.0010    1.7570    0.0000 H   0  0  0  0  0  0  0  0  0  0  0  0
    4.3860    2.1496    0.0000 H   0  0  0  0  0  0  0  0  0  0  0  0
    3.9875    1.4593    0.0000 H   0  0  0  0  0  0  0  0  0  0  0  0
    4.8101   -3.0156    0.0000 H   0  0  0  0  0  0  0  0  0  0  0  0
    5.2087   -2.3253    0.0000 H   0  0  0  0  0  0  0  0  0  0  0  0
    3.9441   -4.5156    0.0000 H   0  0  0  0  0  0  0  0  0  0  0  0
    4.3426   -3.8254    0.0000 H   0  0  0  0  0  0  0  0  0  0  0  0
    3.2646   -1.9581    0.0000 H   0  0  0  0  0  0  0  0  0  0  0  0
    2.4675   -1.9581    0.0000 H   0  0  0  0  0  0  0  0  0  0  0  0
    2.4675   -4.9080    0.0000 H   0  0  0  0  0  0  0  0  0  0  0  0
    3.2646   -4.9080    0.0000 H   0  0  0  0  0  0  0  0  0  0  0  0
    1.7880   -2.3504    0.0000 H   0  0  0  0  0  0  0  0  0  0  0  0
    1.3894   -3.0407    0.0000 H   0  0  0  0  0  0  0  0  0  0  0  0
    3.1951    0.3770    0.0000 H   0  0  0  0  0  0  0  0  0  0  0  0
    6.0010    0.3770    0.0000 H   0  0  0  0  0  0  0  0  0  0  0  0
    3.1951   -1.2430    0.0000 H   0  0  0  0  0  0  0  0  0  0  0  0
    6.0010   -1.2430    0.0000 H   0  0  0  0  0  0  0  0  0  0  0  0
  1  9  2  0  0  0  0 
  2 16  1  0  0  0  0 
  2 17  1  0  0  0  0 
  3  9  1  0  0  0  0 
  3 10  1  0  0  0  0 
  3 29  1  0  0  0  0 
  4 12  1  0  0  0  0 
  4 13  1  0  0  0  0 
  4 14  1  0  0  0  0 
  5  6  1  0  0  0  0 
  5  7  1  0  0  0  0 
  5  8  1  6  0  0  0 
  5 22  1  0  0  0  0 
  6  7  1  0  0  0  0 
  6  9  1  1  0  0  0 
  6 23  1  0  0  0  0 
  7 24  1  0  0  0  0 
  7 25  1  0  0  0  0 
  8 26  1  0  0  0  0 
  8 27  1  0  0  0  0 
  8 28  1  0  0  0  0 
 10 11  1  0  0  0  0 
 10 30  1  0  0  0  0 
 10 31  1  0  0  0  0 
 11 18  2  0  0  0  0 
 11 19  1  0  0  0  0 
 12 15  1  0  0  0  0 
 12 32  1  0  0  0  0 
 12 33  1  0  0  0  0 
 13 17  1  0  0  0  0 
 13 36  1  0  0  0  0 
 13 37  1  0  0  0  0 
 14 16  1  0  0  0  0 
 14 34  1  0  0  0  0 
 14 35  1  0  0  0  0 
 15 20  2  0  0  0  0 
 15 21  1  0  0  0  0 
 16 38  1  0  0  0  0 
 16 39  1  0  0  0  0 
 17 40  1  0  0  0  0 
 17 41  1  0  0  0  0 
 18 20  1  0  0  0  0 
 18 42  1  0  0  0  0 
 19 21  2  0  0  0  0 
 19 43  1  0  0  0  0 
 20 44  1  0  0  0  0 
 21 45  1  0  0  0  0 
M  END
> <cdk:Title>
29881511

> <cdk:Remark>
null

> <PUBCHEM_COMPOUND_CID>
29881511

> <PUBCHEM_COMPOUND_CANONICALIZED>
1

> <PUBCHEM_CACTVS_COMPLEXITY>
347

> <PUBCHEM_CACTVS_HBOND_ACCEPTOR>
3

> <PUBCHEM_CACTVS_HBOND_DONOR>
1

> <PUBCHEM_CACTVS_ROTATABLE_BOND>
5

> <PUBCHEM_CACTVS_SUBSKEYS>
AAADceB7MAAAAAAAAAAAAAAAGAAAAAAAAAA8QAAAAAAAAAABAAAAHgAQAAAADQDhmAYyAIPABACIAiFSEACCAAAgAAAIiIEIBIgKIDKAkRGHIAhglgCYiAcYgAAOQAAAAAAAAACAAAAAAAAAAAAAAAAAAA==

> <PUBCHEM_IUPAC_OPENEYE_NAME>
(1S,2S)-2-methyl-N-[[4-(morpholinomethyl)phenyl]methyl]cyclopropanecarboxamide

> <PUBCHEM_IUPAC_CAS_NAME>
(1S,2S)-2-methyl-N-[[4-(4-morpholinylmethyl)phenyl]methyl]-1-cyclopropanecarboxamide

> <PUBCHEM_IUPAC_NAME>
(1S,2S)-2-methyl-N-[[4-(morpholin-4-ylmethyl)phenyl]methyl]cyclopropane-1-carboxamide

> <PUBCHEM_IUPAC_SYSTEMATIC_NAME>
(1S,2S)-2-methyl-N-[[4-(morpholin-4-ylmethyl)phenyl]methyl]cyclopropane-1-carboxamide

> <PUBCHEM_IUPAC_TRADITIONAL_NAME>
(1S,2S)-2-methyl-N-[4-(morpholinomethyl)benzyl]cyclopropanecarboxamide

> <PUBCHEM_IUPAC_INCHI>
InChI=1S/C17H24N2O2/c1-13-10-16(13)17(20)18-11-14-2-4-15(5-3-14)12-19-6-8-21-9-7-19/h2-5,13,16H,6-12H2,1H3,(H,18,20)/t13-,16-/m0/s1

> <PUBCHEM_IUPAC_INCHIKEY>
KWOOIDRCGLUQQV-BBRMVZONSA-N

> <PUBCHEM_XLOGP3_AA>
1.4

> <PUBCHEM_EXACT_MASS>
288.183778

> <PUBCHEM_MOLECULAR_FORMULA>
C17H24N2O2

> <PUBCHEM_MOLECULAR_WEIGHT>
288.38466

> <PUBCHEM_OPENEYE_CAN_SMILES>
CC1CC1C(=O)NCC2=CC=C(C=C2)CN3CCOCC3

> <PUBCHEM_OPENEYE_ISO_SMILES>
C[C@H]1C[C@@H]1C(=O)NCC2=CC=C(C=C2)CN3CCOCC3

> <PUBCHEM_CACTVS_TPSA>
41.6

> <PUBCHEM_MONOISOTOPIC_WEIGHT>
288.183778

> <PUBCHEM_TOTAL_CHARGE>
0

> <PUBCHEM_HEAVY_ATOM_COUNT>
21

> <PUBCHEM_ATOM_DEF_STEREO_COUNT>
2

> <PUBCHEM_ATOM_UDEF_STEREO_COUNT>
0

> <PUBCHEM_BOND_DEF_STEREO_COUNT>
0

> <PUBCHEM_BOND_UDEF_STEREO_COUNT>
0

> <PUBCHEM_ISOTOPIC_ATOM_COUNT>
0

> <PUBCHEM_COMPONENT_COUNT>
1

> <PUBCHEM_CACTVS_TAUTO_COUNT>
2

> <PUBCHEM_COORDINATE_TYPE>
1

> <PUBCHEM_BONDANNOTATIONS>
11  18  8

$$$$
43656442
  CDK     1229141458

 39 41  0  0  0  0  0  0  0  0999 V2000
    8.2619    1.9704    0.0000 O   0  0  0  0  0  0  0  0  0  0  0  0
    6.7619    1.1044    0.0000 O   0  0  0  0  0  0  0  0  0  0  0  0
    4.9889    1.9936    0.0000 O   0  0  0  0  0  0  0  0  0  0  0  0
    7.7619   -0.6276    0.0000 N   0  0  3  0  0  0  0  0  0  0  0  0
    5.2619    0.2384    0.0000 N   0  0  0  0  0  0  0  0  0  0  0  0
    3.7320    0.7384    0.0000 N   0  0  0  0  0  0  0  0  0  0  0  0
    4.6783   -0.5663    0.0000 N   0  0  0  0  0  0  0  0  0  0  0  0
    9.2619   -1.4936    0.0000 C   0  0  0  0  0  0  0  0  0  0  0  0
   10.1279   -1.9936    0.0000 C   0  0  0  0  0  0  0  0  0  0  0  0
   10.1279   -0.9937    0.0000 C   0  0  0  0  0  0  0  0  0  0  0  0
    8.2619   -1.4936    0.0000 C   0  0  0  0  0  0  0  0  0  0  0  0
    6.7619   -0.6276    0.0000 C   0  0  0  0  0  0  0  0  0  0  0  0
    8.2619    0.2384    0.0000 C   0  0  0  0  0  0  0  0  0  0  0  0
    6.2619    0.2384    0.0000 C   0  0  0  0  0  0  0  0  0  0  0  0
    7.7619    1.1044    0.0000 C   0  0  0  0  0  0  0  0  0  0  0  0
    4.6783    1.0431    0.0000 C   0  0  0  0  0  0  0  0  0  0  0  0
    3.7320   -0.2616    0.0000 C   0  0  0  0  0  0  0  0  0  0  0  0
    2.8660    1.2384    0.0000 C   0  0  0  0  0  0  0  0  0  0  0  0
    2.8660   -0.7616    0.0000 C   0  0  0  0  0  0  0  0  0  0  0  0
    2.0000    0.7384    0.0000 C   0  0  0  0  0  0  0  0  0  0  0  0
    2.0000   -0.2616    0.0000 C   0  0  0  0  0  0  0  0  0  0  0  0
    9.1014   -0.8948    0.0000 H   0  0  0  0  0  0  0  0  0  0  0  0
    9.9158   -2.5763    0.0000 H   0  0  0  0  0  0  0  0  0  0  0  0
   10.7385   -2.1013    0.0000 H   0  0  0  0  0  0  0  0  0  0  0  0
   10.7385   -0.8860    0.0000 H   0  0  0  0  0  0  0  0  0  0  0  0
    9.9158   -0.4110    0.0000 H   0  0  0  0  0  0  0  0  0  0  0  0
    7.6793   -1.7057    0.0000 H   0  0  0  0  0  0  0  0  0  0  0  0
    8.3695   -2.1042    0.0000 H   0  0  0  0  0  0  0  0  0  0  0  0
    6.1793   -0.8397    0.0000 H   0  0  0  0  0  0  0  0  0  0  0  0
    6.8695   -1.2382    0.0000 H   0  0  0  0  0  0  0  0  0  0  0  0
    8.7368   -0.1601    0.0000 H   0  0  0  0  0  0  0  0  0  0  0  0
    8.7368    0.6369    0.0000 H   0  0  0  0  0  0  0  0  0  0  0  0
    6.8445    0.4505    0.0000 H   0  0  0  0  0  0  0  0  0  0  0  0
    6.1542    0.8490    0.0000 H   0  0  0  0  0  0  0  0  0  0  0  0
    2.8660    1.8584    0.0000 H   0  0  0  0  0  0  0  0  0  0  0  0
    2.8660   -1.3816    0.0000 H   0  0  0  0  0  0  0  0  0  0  0  0
    8.8819    1.9704    0.0000 H   0  0  0  0  0  0  0  0  0  0  0  0
    1.4631    1.0484    0.0000 H   0  0  0  0  0  0  0  0  0  0  0  0
    1.4631   -0.5716    0.0000 H   0  0  0  0  0  0  0  0  0  0  0  0
  1 15  1  0  0  0  0 
  1 37  1  0  0  0  0 
  2 15  2  0  0  0  0 
  3 16  2  0  0  0  0 
  4 11  1  0  0  0  0 
  4 12  1  0  0  0  0 
  4 13  1  0  0  0  0 
  5  7  1  0  0  0  0 
  5 14  1  0  0  0  0 
  5 16  1  0  0  0  0 
  6 16  1  0  0  0  0 
  6 17  1  0  0  0  0 
  6 18  1  0  0  0  0 
  7 17  2  0  0  0  0 
  8  9  1  0  0  0  0 
  8 10  1  0  0  0  0 
  8 11  1  0  0  0  0 
  8 22  1  0  0  0  0 
  9 10  1  0  0  0  0 
  9 23  1  0  0  0  0 
  9 24  1  0  0  0  0 
 10 25  1  0  0  0  0 
 10 26  1  0  0  0  0 
 11 27  1  0  0  0  0 
 11 28  1  0  0  0  0 
 12 14  1  0  0  0  0 
 12 29  1  0  0  0  0 
 12 30  1  0  0  0  0 
 13 15  1  0  0  0  0 
 13 31  1  0  0  0  0 
 13 32  1  0  0  0  0 
 14 33  1  0  0  0  0 
 14 34  1  0  0  0  0 
 17 19  1  0  0  0  0 
 18 20  2  0  0  0  0 
 18 35  1  0  0  0  0 
 19 21  2  0  0  0  0 
 19 36  1  0  0  0  0 
 20 21  1  0  0  0  0 
 20 38  1  0  0  0  0 
 21 39  1  0  0  0  0 
M  END
> <cdk:Title>
43656442

> <cdk:Remark>
null

> <PUBCHEM_COMPOUND_CID>
43656442

> <PUBCHEM_COMPOUND_CANONICALIZED>
1

> <PUBCHEM_CACTVS_COMPLEXITY>
536

> <PUBCHEM_CACTVS_HBOND_ACCEPTOR>
5

> <PUBCHEM_CACTVS_HBOND_DONOR>
1

> <PUBCHEM_CACTVS_ROTATABLE_BOND>
7

> <PUBCHEM_CACTVS_SUBSKEYS>
AAADceBzsAAAAAAAAAAAAAAAGAAAAQAAAAAgAAAAAAAAAEAAAAAAHgAICAAADQDBgAQBCAMAAgCoACL2eACQAAAAAgAfCACYABCKQAAAgSAUAAAIDgKQgAAAAAAAAAAAAAAAAAAAAAAAAAAAAAAAAAAAAA==

> <PUBCHEM_IUPAC_OPENEYE_NAME>
2-[cyclopropylmethyl-[2-(3-oxo-[1,2,4]triazolo[4,3-a]pyridin-2-yl)ethyl]amino]acetic acid

> <PUBCHEM_IUPAC_CAS_NAME>
2-[cyclopropylmethyl-[2-(3-oxo-[1,2,4]triazolo[4,3-a]pyridin-2-yl)ethyl]amino]acetic acid

> <PUBCHEM_IUPAC_NAME>
2-[cyclopropylmethyl-[2-(3-oxo-[1,2,4]triazolo[4,3-a]pyridin-2-yl)ethyl]amino]acetic acid

> <PUBCHEM_IUPAC_SYSTEMATIC_NAME>
2-[cyclopropylmethyl-[2-(3-oxidanylidene-[1,2,4]triazolo[4,3-a]pyridin-2-yl)ethyl]amino]ethanoic acid

> <PUBCHEM_IUPAC_TRADITIONAL_NAME>
2-[cyclopropylmethyl-[2-(3-keto-[1,2,4]triazolo[4,3-a]pyridin-2-yl)ethyl]amino]acetic acid

> <PUBCHEM_IUPAC_INCHI>
InChI=1S/C14H18N4O3/c19-13(20)10-16(9-11-4-5-11)7-8-18-14(21)17-6-2-1-3-12(17)15-18/h1-3,6,11H,4-5,7-10H2,(H,19,20)

> <PUBCHEM_IUPAC_INCHIKEY>
MPFCLISMMCGSGY-UHFFFAOYSA-N

> <PUBCHEM_XLOGP3_AA>
-1.7

> <PUBCHEM_EXACT_MASS>
290.13789

> <PUBCHEM_MOLECULAR_FORMULA>
C14H18N4O3

> <PUBCHEM_MOLECULAR_WEIGHT>
290.31772

> <PUBCHEM_OPENEYE_CAN_SMILES>
C1CC1CN(CCN2C(=O)N3C=CC=CC3=N2)CC(=O)O

> <PUBCHEM_OPENEYE_ISO_SMILES>
C1CC1CN(CCN2C(=O)N3C=CC=CC3=N2)CC(=O)O

> <PUBCHEM_CACTVS_TPSA>
76.4

> <PUBCHEM_MONOISOTOPIC_WEIGHT>
290.13789

> <PUBCHEM_TOTAL_CHARGE>
0

> <PUBCHEM_HEAVY_ATOM_COUNT>
21

> <PUBCHEM_ATOM_DEF_STEREO_COUNT>
0

> <PUBCHEM_ATOM_UDEF_STEREO_COUNT>
0

> <PUBCHEM_BOND_DEF_STEREO_COUNT>
0

> <PUBCHEM_BOND_UDEF_STEREO_COUNT>
0

> <PUBCHEM_ISOTOPIC_ATOM_COUNT>
0

> <PUBCHEM_COMPONENT_COUNT>
1

> <PUBCHEM_CACTVS_TAUTO_COUNT>
1

> <PUBCHEM_COORDINATE_TYPE>
1

> <PUBCHEM_BONDANNOTATIONS>
17  19  8

$$$$
