
  CDK     0202151410

 38 38  0  0  0  0  0  0  0  0999 V2000
    7.2106    0.1730    0.0000 O   0  0  0  0  0  0  0  0  0  0  0  0
    6.5295    1.3526    0.0000 O   0  0  0  0  0  0  0  0  0  0  0  0
   11.4266    1.3935    0.0000 O   0  0  0  0  0  0  0  0  0  0  0  0
    9.9685   -2.1495    0.0000 O   0  0  0  0  0  0  0  0  0  0  0  0
    5.8971    4.9023    0.0000 O   0  0  0  0  0  0  0  0  0  0  0  0
    8.6118    1.1911    0.0000 N   0  0  0  0  0  0  0  0  0  0  0  0
    8.3862   -1.4450    0.0000 N   0  0  0  0  0  0  0  0  0  0  0  0
    6.7106    3.0752    0.0000 N   0  0  0  0  0  0  0  0  0  0  0  0
   12.2926    2.8935    0.0000 N   0  0  0  0  0  0  0  0  0  0  0  0
    8.5672   -3.1676    0.0000 N   0  0  0  0  0  0  0  0  0  0  0  0
   10.7373   -4.6811    0.0000 N   0  0  3  0  0  0  0  0  0  0  0  0
    9.6945    2.3935    0.0000 C   0  0  2  0  0  0  0  0  0  0  0  0
    8.1118    2.0571    0.0000 C   0  0  1  0  0  0  0  0  0  0  0  0
    8.7810    2.8003    0.0000 C   0  0  0  0  0  0  0  0  0  0  0  0
    9.5900    1.3990    0.0000 C   0  0  0  0  0  0  0  0  0  0  0  0
   10.5605    2.8935    0.0000 C   0  0  0  0  0  0  0  0  0  0  0  0
    8.7929   -0.5315    0.0000 C   0  0  2  0  0  0  0  0  0  0  0  0
    8.2051    0.2776    0.0000 C   0  0  0  0  0  0  0  0  0  0  0  0
    9.7874   -0.4269    0.0000 C   0  0  0  0  0  0  0  0  0  0  0  0
    7.1173    2.1617    0.0000 C   0  0  0  0  0  0  0  0  0  0  0  0
   11.4266    2.3935    0.0000 C   0  0  0  0  0  0  0  0  0  0  0  0
   10.7819   -0.3224    0.0000 C   0  0  0  0  0  0  0  0  0  0  0  0
    9.8919   -1.4215    0.0000 C   0  0  0  0  0  0  0  0  0  0  0  0
    9.6829    0.5676    0.0000 C   0  0  0  0  0  0  0  0  0  0  0  0
    5.7161    3.1797    0.0000 C   0  0  3  0  0  0  0  0  0  0  0  0
    9.1550   -3.9766    0.0000 C   0  0  1  0  0  0  0  0  0  0  0  0
    8.7482   -4.8901    0.0000 C   0  0  0  0  0  0  0  0  0  0  0  0
   12.2926    3.8935    0.0000 C   0  0  0  0  0  0  0  0  0  0  0  0
   13.1586    2.3935    0.0000 C   0  0  0  0  0  0  0  0  0  0  0  0
    8.9739   -2.2540    0.0000 C   0  0  0  0  0  0  0  0  0  0  0  0
    5.1283    2.3707    0.0000 C   0  0  0  0  0  0  0  0  0  0  0  0
    5.3093    4.0933    0.0000 C   0  0  0  0  0  0  0  0  0  0  0  0
   10.1495   -3.8720    0.0000 C   0  0  0  0  0  0  0  0  0  0  0  0
    4.3148    4.1978    0.0000 C   0  0  0  0  0  0  0  0  0  0  0  0
    8.3415   -5.8037    0.0000 C   0  0  0  0  0  0  0  0  0  0  0  0
    9.6618   -5.2969    0.0000 C   0  0  0  0  0  0  0  0  0  0  0  0
    7.8347   -4.4834    0.0000 C   0  0  0  0  0  0  0  0  0  0  0  0
    4.1338    2.4752    0.0000 C   0  0  0  0  0  0  0  0  0  0  0  0
  1 18  1  0  0  0  0 
  2 20  1  0  0  0  0 
  3 21  1  0  0  0  0 
  4 30  1  0  0  0  0 
  5 32  1  0  0  0  0 
  6 13  1  0  0  0  0 
  6 15  1  0  0  0  0 
  6 18  1  0  0  0  0 
 17  7  1  6  0  0  0 
  7 30  1  0  0  0  0 
  8 20  1  0  0  0  0 
  8 25  1  0  0  0  0 
  9 21  1  0  0  0  0 
  9 28  1  0  0  0  0 
  9 29  1  0  0  0  0 
 26 10  1  6  0  0  0 
 10 30  1  0  0  0  0 
 11 33  1  0  0  0  0 
 12 14  1  0  0  0  0 
 12 15  1  0  0  0  0 
 12 16  1  1  0  0  0 
 13 14  1  0  0  0  0 
 13 20  1  6  0  0  0 
 16 21  1  0  0  0  0 
 17 18  1  0  0  0  0 
 17 19  1  0  0  0  0 
 19 22  1  0  0  0  0 
 19 23  1  0  0  0  0 
 19 24  1  0  0  0  0 
 25 31  1  0  0  0  0 
 25 32  1  0  0  0  0 
 26 27  1  0  0  0  0 
 26 33  1  0  0  0  0 
 27 35  1  0  0  0  0 
 27 36  1  0  0  0  0 
 27 37  1  0  0  0  0 
 31 38  1  0  0  0  0 
 32 34  1  0  0  0  0 
M  END
> <PUBCHEM_COMPOUND_CID>
71211445

$$$$
