50242199
  CDK     0202151410

102106  0  0  0  0  0  0  0  0999 V2000
    4.5981  -11.2500    0.0000 F   0  0  0  0  0  0  0  0  0  0  0  0
    8.9282    0.2500    0.0000 O   0  0  0  0  0  0  0  0  0  0  0  0
    5.4641   -2.7500    0.0000 O   0  0  0  0  0  0  0  0  0  0  0  0
   10.6603    3.2500    0.0000 O   0  0  0  0  0  0  0  0  0  0  0  0
    2.8660   -7.2500    0.0000 O   0  0  0  0  0  0  0  0  0  0  0  0
    9.7942    7.7500    0.0000 O   0  0  0  0  0  0  0  0  0  0  0  0
   12.3923    9.2500    0.0000 O   0  0  0  0  0  0  0  0  0  0  0  0
    5.4641   -0.7500    0.0000 N   0  0  0  0  0  0  0  0  0  0  0  0
    8.0622    1.7500    0.0000 N   0  0  0  0  0  0  0  0  0  0  0  0
    3.7320   -2.7500    0.0000 N   0  0  0  0  0  0  0  0  0  0  0  0
    9.7942    4.7500    0.0000 N   0  0  0  0  0  0  0  0  0  0  0  0
    4.5981   -7.2500    0.0000 N   0  0  0  0  0  0  0  0  0  0  0  0
   11.5263    7.7500    0.0000 N   0  0  0  0  0  0  0  0  0  0  0  0
    7.1962    0.2500    0.0000 C   0  0  0  0  0  0  0  0  0  0  0  0
    6.3301    0.7500    0.0000 C   0  0  0  0  0  0  0  0  0  0  0  0
    7.1962   -0.7500    0.0000 C   0  0  0  0  0  0  0  0  0  0  0  0
    6.3301   -1.2500    0.0000 C   0  0  0  0  0  0  0  0  0  0  0  0
    5.4641    0.2500    0.0000 C   0  0  0  0  0  0  0  0  0  0  0  0
    4.5981   -1.2500    0.0000 C   0  0  3  0  0  0  0  0  0  0  0  0
    8.0622    0.7500    0.0000 C   0  0  0  0  0  0  0  0  0  0  0  0
    3.7320   -0.7500    0.0000 C   0  0  0  0  0  0  0  0  0  0  0  0
    4.5981   -2.2500    0.0000 C   0  0  0  0  0  0  0  0  0  0  0  0
    8.9282    2.2500    0.0000 C   0  0  0  0  0  0  0  0  0  0  0  0
    8.9282    3.2500    0.0000 C   0  0  0  0  0  0  0  0  0  0  0  0
    3.7320   -3.7500    0.0000 C   0  0  0  0  0  0  0  0  0  0  0  0
    2.8660   -4.2500    0.0000 C   0  0  0  0  0  0  0  0  0  0  0  0
    9.7942    3.7500    0.0000 C   0  0  0  0  0  0  0  0  0  0  0  0
    4.5981   -4.2500    0.0000 C   0  0  0  0  0  0  0  0  0  0  0  0
    2.8660   -5.2500    0.0000 C   0  0  0  0  0  0  0  0  0  0  0  0
    4.5981   -5.2500    0.0000 C   0  0  0  0  0  0  0  0  0  0  0  0
    2.0000   -3.7500    0.0000 C   0  0  0  0  0  0  0  0  0  0  0  0
    3.7320   -5.7500    0.0000 C   0  0  0  0  0  0  0  0  0  0  0  0
   10.6603    5.2500    0.0000 C   0  0  0  0  0  0  0  0  0  0  0  0
    3.7320   -6.7500    0.0000 C   0  0  0  0  0  0  0  0  0  0  0  0
   10.6603    6.2500    0.0000 C   0  0  0  0  0  0  0  0  0  0  0  0
   11.5263    4.7500    0.0000 C   0  0  0  0  0  0  0  0  0  0  0  0
   11.5263    6.7500    0.0000 C   0  0  0  0  0  0  0  0  0  0  0  0
   12.3923    6.2500    0.0000 C   0  0  0  0  0  0  0  0  0  0  0  0
   12.3923    5.2500    0.0000 C   0  0  0  0  0  0  0  0  0  0  0  0
    4.5981   -8.2500    0.0000 C   0  0  0  0  0  0  0  0  0  0  0  0
   13.2583    6.7500    0.0000 C   0  0  0  0  0  0  0  0  0  0  0  0
    3.7320   -8.7500    0.0000 C   0  0  0  0  0  0  0  0  0  0  0  0
    5.4641   -8.7500    0.0000 C   0  0  0  0  0  0  0  0  0  0  0  0
   10.6603    8.2500    0.0000 C   0  0  0  0  0  0  0  0  0  0  0  0
    3.7320   -9.7500    0.0000 C   0  0  0  0  0  0  0  0  0  0  0  0
    2.8660   -8.2500    0.0000 C   0  0  0  0  0  0  0  0  0  0  0  0
    5.4641   -9.7500    0.0000 C   0  0  0  0  0  0  0  0  0  0  0  0
    4.5981  -10.2500    0.0000 C   0  0  0  0  0  0  0  0  0  0  0  0
   10.6603    9.2500    0.0000 C   0  0  0  0  0  0  0  0  0  0  0  0
   11.5263    9.7500    0.0000 C   0  0  0  0  0  0  0  0  0  0  0  0
    9.7942    9.7500    0.0000 C   0  0  0  0  0  0  0  0  0  0  0  0
   11.5263   10.7500    0.0000 C   0  0  0  0  0  0  0  0  0  0  0  0
    9.7942   10.7500    0.0000 C   0  0  0  0  0  0  0  0  0  0  0  0
   10.6603   11.2500    0.0000 C   0  0  0  0  0  0  0  0  0  0  0  0
   13.2583    9.7500    0.0000 C   0  0  0  0  0  0  0  0  0  0  0  0
    7.7331   -0.0600    0.0000 H   0  0  0  0  0  0  0  0  0  0  0  0
    7.4082   -1.3326    0.0000 H   0  0  0  0  0  0  0  0  0  0  0  0
    7.8067   -0.6423    0.0000 H   0  0  0  0  0  0  0  0  0  0  0  0
    6.7287    1.2250    0.0000 H   0  0  0  0  0  0  0  0  0  0  0  0
    5.9316    1.2250    0.0000 H   0  0  0  0  0  0  0  0  0  0  0  0
    5.9316   -1.7250    0.0000 H   0  0  0  0  0  0  0  0  0  0  0  0
    6.7287   -1.7250    0.0000 H   0  0  0  0  0  0  0  0  0  0  0  0
    5.2520    0.8326    0.0000 H   0  0  0  0  0  0  0  0  0  0  0  0
    4.8535    0.1423    0.0000 H   0  0  0  0  0  0  0  0  0  0  0  0
    4.5981   -0.6300    0.0000 H   0  0  0  0  0  0  0  0  0  0  0  0
    4.0420   -0.2131    0.0000 H   0  0  0  0  0  0  0  0  0  0  0  0
    3.1951   -0.4400    0.0000 H   0  0  0  0  0  0  0  0  0  0  0  0
    3.4220   -1.2869    0.0000 H   0  0  0  0  0  0  0  0  0  0  0  0
    7.5252    2.0600    0.0000 H   0  0  0  0  0  0  0  0  0  0  0  0
    9.1403    1.6674    0.0000 H   0  0  0  0  0  0  0  0  0  0  0  0
    9.5388    2.3577    0.0000 H   0  0  0  0  0  0  0  0  0  0  0  0
    3.1951   -2.4400    0.0000 H   0  0  0  0  0  0  0  0  0  0  0  0
    8.7162    3.8326    0.0000 H   0  0  0  0  0  0  0  0  0  0  0  0
    8.3176    3.1423    0.0000 H   0  0  0  0  0  0  0  0  0  0  0  0
    5.1350   -3.9400    0.0000 H   0  0  0  0  0  0  0  0  0  0  0  0
    2.3291   -5.5600    0.0000 H   0  0  0  0  0  0  0  0  0  0  0  0
    5.1350   -5.5600    0.0000 H   0  0  0  0  0  0  0  0  0  0  0  0
    2.3100   -3.2131    0.0000 H   0  0  0  0  0  0  0  0  0  0  0  0
    1.4631   -3.4400    0.0000 H   0  0  0  0  0  0  0  0  0  0  0  0
    1.6900   -4.2869    0.0000 H   0  0  0  0  0  0  0  0  0  0  0  0
    9.2573    5.0600    0.0000 H   0  0  0  0  0  0  0  0  0  0  0  0
   10.1233    6.5600    0.0000 H   0  0  0  0  0  0  0  0  0  0  0  0
   11.5263    4.1300    0.0000 H   0  0  0  0  0  0  0  0  0  0  0  0
    5.1350   -6.9400    0.0000 H   0  0  0  0  0  0  0  0  0  0  0  0
   12.9292    4.9400    0.0000 H   0  0  0  0  0  0  0  0  0  0  0  0
   12.0632    8.0600    0.0000 H   0  0  0  0  0  0  0  0  0  0  0  0
   13.5683    6.2131    0.0000 H   0  0  0  0  0  0  0  0  0  0  0  0
   13.7953    7.0600    0.0000 H   0  0  0  0  0  0  0  0  0  0  0  0
   12.9483    7.2869    0.0000 H   0  0  0  0  0  0  0  0  0  0  0  0
    6.0010   -8.4400    0.0000 H   0  0  0  0  0  0  0  0  0  0  0  0
    3.1951  -10.0600    0.0000 H   0  0  0  0  0  0  0  0  0  0  0  0
    3.1760   -7.7131    0.0000 H   0  0  0  0  0  0  0  0  0  0  0  0
    2.3291   -7.9400    0.0000 H   0  0  0  0  0  0  0  0  0  0  0  0
    2.5560   -8.7869    0.0000 H   0  0  0  0  0  0  0  0  0  0  0  0
    6.0010  -10.0600    0.0000 H   0  0  0  0  0  0  0  0  0  0  0  0
    9.2573    9.4400    0.0000 H   0  0  0  0  0  0  0  0  0  0  0  0
   12.0632   11.0600    0.0000 H   0  0  0  0  0  0  0  0  0  0  0  0
    9.2573   11.0600    0.0000 H   0  0  0  0  0  0  0  0  0  0  0  0
   10.6603   11.8700    0.0000 H   0  0  0  0  0  0  0  0  0  0  0  0
   13.5683    9.2131    0.0000 H   0  0  0  0  0  0  0  0  0  0  0  0
   13.7953   10.0600    0.0000 H   0  0  0  0  0  0  0  0  0  0  0  0
   12.9483   10.2869    0.0000 H   0  0  0  0  0  0  0  0  0  0  0  0
  1 48  1  0  0  0  0 
  2 20  2  0  0  0  0 
  3 22  2  0  0  0  0 
  4 27  2  0  0  0  0 
  5 34  2  0  0  0  0 
  6 44  2  0  0  0  0 
  7 50  1  0  0  0  0 
  7 55  1  0  0  0  0 
  8 17  1  0  0  0  0 
  8 18  1  0  0  0  0 
  8 19  1  0  0  0  0 
  9 20  1  0  0  0  0 
  9 23  1  0  0  0  0 
  9 69  1  0  0  0  0 
 10 22  1  0  0  0  0 
 10 25  1  0  0  0  0 
 10 72  1  0  0  0  0 
 11 27  1  0  0  0  0 
 11 33  1  0  0  0  0 
 11 81  1  0  0  0  0 
 12 34  1  0  0  0  0 
 12 40  1  0  0  0  0 
 12 84  1  0  0  0  0 
 13 37  1  0  0  0  0 
 13 44  1  0  0  0  0 
 13 86  1  0  0  0  0 
 14 15  1  0  0  0  0 
 14 16  1  0  0  0  0 
 14 20  1  0  0  0  0 
 14 56  1  0  0  0  0 
 15 18  1  0  0  0  0 
 15 59  1  0  0  0  0 
 15 60  1  0  0  0  0 
 16 17  1  0  0  0  0 
 16 57  1  0  0  0  0 
 16 58  1  0  0  0  0 
 17 61  1  0  0  0  0 
 17 62  1  0  0  0  0 
 18 63  1  0  0  0  0 
 18 64  1  0  0  0  0 
 19 21  1  0  0  0  0 
 19 22  1  0  0  0  0 
 19 65  1  0  0  0  0 
 21 66  1  0  0  0  0 
 21 67  1  0  0  0  0 
 21 68  1  0  0  0  0 
 23 24  1  0  0  0  0 
 23 70  1  0  0  0  0 
 23 71  1  0  0  0  0 
 24 27  1  0  0  0  0 
 24 73  1  0  0  0  0 
 24 74  1  0  0  0  0 
 25 26  2  0  0  0  0 
 25 28  1  0  0  0  0 
 26 29  1  0  0  0  0 
 26 31  1  0  0  0  0 
 28 30  2  0  0  0  0 
 28 75  1  0  0  0  0 
 29 32  2  0  0  0  0 
 29 76  1  0  0  0  0 
 30 32  1  0  0  0  0 
 30 77  1  0  0  0  0 
 31 78  1  0  0  0  0 
 31 79  1  0  0  0  0 
 31 80  1  0  0  0  0 
 32 34  1  0  0  0  0 
 33 35  2  0  0  0  0 
 33 36  1  0  0  0  0 
 35 37  1  0  0  0  0 
 35 82  1  0  0  0  0 
 36 39  2  0  0  0  0 
 36 83  1  0  0  0  0 
 37 38  2  0  0  0  0 
 38 39  1  0  0  0  0 
 38 41  1  0  0  0  0 
 39 85  1  0  0  0  0 
 40 42  2  0  0  0  0 
 40 43  1  0  0  0  0 
 41 87  1  0  0  0  0 
 41 88  1  0  0  0  0 
 41 89  1  0  0  0  0 
 42 45  1  0  0  0  0 
 42 46  1  0  0  0  0 
 43 47  2  0  0  0  0 
 43 90  1  0  0  0  0 
 44 49  1  0  0  0  0 
 45 48  2  0  0  0  0 
 45 91  1  0  0  0  0 
 46 92  1  0  0  0  0 
 46 93  1  0  0  0  0 
 46 94  1  0  0  0  0 
 47 48  1  0  0  0  0 
 47 95  1  0  0  0  0 
 49 50  1  0  0  0  0 
 49 51  2  0  0  0  0 
 50 52  2  0  0  0  0 
 51 53  1  0  0  0  0 
 51 96  1  0  0  0  0 
 52 54  1  0  0  0  0 
 52 97  1  0  0  0  0 
 53 54  2  0  0  0  0 
 53 98  1  0  0  0  0 
 54 99  1  0  0  0  0 
 55100  1  0  0  0  0 
 55101  1  0  0  0  0 
 55102  1  0  0  0  0 
M  END
> <cdk:Title>
50242199

> <cdk:Remark>
null

> <PUBCHEM_COMPOUND_CID>
50242199

> <PUBCHEM_COMPOUND_CANONICALIZED>
1

> <PUBCHEM_CACTVS_COMPLEXITY>
1310

> <PUBCHEM_CACTVS_HBOND_ACCEPTOR>
8

> <PUBCHEM_CACTVS_HBOND_DONOR>
5

> <PUBCHEM_CACTVS_ROTATABLE_BOND>
13

> <PUBCHEM_CACTVS_SUBSKEYS>
AAADcfB/uQAAAAAAAAAAAAAAAAAAAAAAAAA8YMGCAAAAAAABVAAAHwAQAAAADSzBmA4yxoPABACIAiVSUACCCAAlIgAIiIGObMgMZj7E9fuUMWhm9hHI6YecyWCeCAACAAQKAAAQAAQACBQAAAAAAAAAAA==

> <PUBCHEM_IUPAC_OPENEYE_NAME>
1-[2-[4-[(4-fluoro-2-methyl-phenyl)carbamoyl]-2-methyl-anilino]-1-methyl-2-oxo-ethyl]-N-[3-[3-[(2-methoxybenzoyl)amino]-4-methyl-anilino]-3-oxo-propyl]piperidine-4-carboxamide

> <PUBCHEM_IUPAC_CAS_NAME>
1-[1-[4-[(4-fluoro-2-methylanilino)-oxomethyl]-2-methylanilino]-1-oxopropan-2-yl]-N-[3-[3-[[(2-methoxyphenyl)-oxomethyl]amino]-4-methylanilino]-3-oxopropyl]-4-piperidinecarboxamide

> <PUBCHEM_IUPAC_NAME>
1-[1-[4-[(4-fluoro-2-methylphenyl)carbamoyl]-2-methylanilino]-1-oxopropan-2-yl]-N-[3-[3-[(2-methoxybenzoyl)amino]-4-methylanilino]-3-oxopropyl]piperidine-4-carboxamide

> <PUBCHEM_IUPAC_SYSTEMATIC_NAME>
1-[1-[[4-[(4-fluoranyl-2-methyl-phenyl)carbamoyl]-2-methyl-phenyl]amino]-1-oxidanylidene-propan-2-yl]-N-[3-[[3-[(2-methoxyphenyl)carbonylamino]-4-methyl-phenyl]amino]-3-oxidanylidene-propyl]piperidine-4-carboxamide

> <PUBCHEM_IUPAC_TRADITIONAL_NAME>
1-[2-[4-[(4-fluoro-2-methyl-phenyl)carbamoyl]-2-methyl-anilino]-2-keto-1-methyl-ethyl]-N-[3-keto-3-[4-methyl-3-(o-anisoylamino)anilino]propyl]isonipecotamide

> <PUBCHEM_IUPAC_INCHI>
InChI=1S/C42H47FN6O6/c1-25-10-13-32(24-36(25)48-42(54)33-8-6-7-9-37(33)55-5)45-38(50)16-19-44-40(52)29-17-20-49(21-18-29)28(4)39(51)46-34-14-11-30(22-26(34)2)41(53)47-35-15-12-31(43)23-27(35)3/h6-15,22-24,28-29H,16-21H2,1-5H3,(H,44,52)(H,45,50)(H,46,51)(H,47,53)(H,48,54)

> <PUBCHEM_IUPAC_INCHIKEY>
PZEROLLZGSYLGK-UHFFFAOYSA-N

> <PUBCHEM_XLOGP3_AA>
5

> <PUBCHEM_EXACT_MASS>
750.354111

> <PUBCHEM_MOLECULAR_FORMULA>
C42H47FN6O6

> <PUBCHEM_MOLECULAR_WEIGHT>
750.857583

> <PUBCHEM_OPENEYE_CAN_SMILES>
CC1=C(C=C(C=C1)NC(=O)CCNC(=O)C2CCN(CC2)C(C)C(=O)NC3=C(C=C(C=C3)C(=O)NC4=C(C=C(C=C4)F)C)C)NC(=O)C5=CC=CC=C5OC

> <PUBCHEM_OPENEYE_ISO_SMILES>
CC1=C(C=C(C=C1)NC(=O)CCNC(=O)C2CCN(CC2)C(C)C(=O)NC3=C(C=C(C=C3)C(=O)NC4=C(C=C(C=C4)F)C)C)NC(=O)C5=CC=CC=C5OC

> <PUBCHEM_CACTVS_TPSA>
158

> <PUBCHEM_MONOISOTOPIC_WEIGHT>
750.354111

> <PUBCHEM_TOTAL_CHARGE>
0

> <PUBCHEM_HEAVY_ATOM_COUNT>
55

> <PUBCHEM_ATOM_DEF_STEREO_COUNT>
0

> <PUBCHEM_ATOM_UDEF_STEREO_COUNT>
1

> <PUBCHEM_BOND_DEF_STEREO_COUNT>
0

> <PUBCHEM_BOND_UDEF_STEREO_COUNT>
0

> <PUBCHEM_ISOTOPIC_ATOM_COUNT>
0

> <PUBCHEM_COMPONENT_COUNT>
1

> <PUBCHEM_CACTVS_TAUTO_COUNT>
144

> <PUBCHEM_COORDINATE_TYPE>
1

> <PUBCHEM_BONDANNOTATIONS>
19  21  3

$$$$
