
  CDK     1223141415

 23 25  0  0  0  0  0  0  0  0999 V2000
    8.9282   -3.5000    0.0000 N   0  0  0  0  0  0  0  0  0  0  0  0
    7.1962   -2.5000    0.0000 N   0  0  0  0  0  0  0  0  0  0  0  0
    4.5981   -2.0000    0.0000 N   0  0  0  0  0  0  0  0  0  0  0  0
    3.7320    0.5000    0.0000 N   0  0  0  0  0  0  0  0  0  0  0  0
    6.3301   -2.0000    0.0000 C   0  0  0  0  0  0  0  0  0  0  0  0
    7.1962   -3.5000    0.0000 C   0  0  0  0  0  0  0  0  0  0  0  0
    8.0622   -2.0000    0.0000 C   0  0  0  0  0  0  0  0  0  0  0  0
    5.4641   -2.5000    0.0000 C   0  0  0  0  0  0  0  0  0  0  0  0
    8.9282   -2.5000    0.0000 C   0  0  0  0  0  0  0  0  0  0  0  0
    8.0622   -4.0000    0.0000 C   0  0  0  0  0  0  0  0  0  0  0  0
    4.5981   -1.0000    0.0000 C   0  0  0  0  0  0  0  0  0  0  0  0
    5.4641   -3.5000    0.0000 C   0  0  0  0  0  0  0  0  0  0  0  0
    3.7320   -2.5000    0.0000 C   0  0  0  0  0  0  0  0  0  0  0  0
    4.5981   -4.0000    0.0000 C   0  0  0  0  0  0  0  0  0  0  0  0
    3.7320   -3.5000    0.0000 C   0  0  0  0  0  0  0  0  0  0  0  0
    3.7320   -0.5000    0.0000 C   0  0  0  0  0  0  0  0  0  0  0  0
    2.8660    1.0000    0.0000 C   0  0  0  0  0  0  0  0  0  0  0  0
    2.8660    2.0000    0.0000 C   0  0  0  0  0  0  0  0  0  0  0  0
    3.7320    2.5000    0.0000 C   0  0  0  0  0  0  0  0  0  0  0  0
    2.0000    2.5000    0.0000 C   0  0  0  0  0  0  0  0  0  0  0  0
    3.7320    3.5000    0.0000 C   0  0  0  0  0  0  0  0  0  0  0  0
    2.0000    3.5000    0.0000 C   0  0  0  0  0  0  0  0  0  0  0  0
    2.8660    4.0000    0.0000 C   0  0  0  0  0  0  0  0  0  0  0  0
  1  9  1  0  0  0  0 
  1 10  1  0  0  0  0 
  2  5  1  0  0  0  0 
  2  6  1  0  0  0  0 
  2  7  1  0  0  0  0 
  3  8  1  0  0  0  0 
  3 11  1  0  0  0  0 
  3 13  1  0  0  0  0 
  4 16  1  0  0  0  0 
  4 17  1  0  0  0  0 
  5  8  1  0  0  0  0 
  6 10  1  0  0  0  0 
  7  9  1  0  0  0  0 
  8 12  1  0  0  0  0 
 11 16  1  0  0  0  0 
 12 14  1  0  0  0  0 
 13 15  1  0  0  0  0 
 14 15  1  0  0  0  0 
 17 18  1  0  0  0  0 
 18 19  1  0  0  0  0 
 18 20  1  0  0  0  0 
 19 21  1  0  0  0  0 
 20 22  1  0  0  0  0 
 21 23  1  0  0  0  0 
 22 23  1  0  0  0  0 
M  ISO  1   1  16
M  END
> <PUBCHEM_COMPOUND_CID>
30544573

$$$$

  CDK     1223141415

 23 25  0  0  0  0  0  0  0  0999 V2000
    2.0000   -4.0000    0.0000 N   0  0  0  0  0  0  0  0  0  0  0  0
    3.7320   -3.0000    0.0000 N   0  0  0  0  0  0  0  0  0  0  0  0
    6.3301   -1.5000    0.0000 N   0  0  0  0  0  0  0  0  0  0  0  0
    7.1962    0.0000    0.0000 N   0  0  0  0  0  0  0  0  0  0  0  0
    3.7320   -4.0000    0.0000 C   0  0  0  0  0  0  0  0  0  0  0  0
    2.8660   -2.5000    0.0000 C   0  0  0  0  0  0  0  0  0  0  0  0
    4.5981   -2.5000    0.0000 C   0  0  0  0  0  0  0  0  0  0  0  0
    2.8660   -4.5000    0.0000 C   0  0  0  0  0  0  0  0  0  0  0  0
    2.0000   -3.0000    0.0000 C   0  0  0  0  0  0  0  0  0  0  0  0
    5.4641   -3.0000    0.0000 C   0  0  0  0  0  0  0  0  0  0  0  0
    6.3301   -2.5000    0.0000 C   0  0  0  0  0  0  0  0  0  0  0  0
    5.4641   -4.0000    0.0000 C   0  0  0  0  0  0  0  0  0  0  0  0
    7.1962   -3.0000    0.0000 C   0  0  0  0  0  0  0  0  0  0  0  0
    6.3301   -4.5000    0.0000 C   0  0  0  0  0  0  0  0  0  0  0  0
    7.1962   -4.0000    0.0000 C   0  0  0  0  0  0  0  0  0  0  0  0
    7.1962   -1.0000    0.0000 C   0  0  0  0  0  0  0  0  0  0  0  0
    8.0622    0.5000    0.0000 C   0  0  0  0  0  0  0  0  0  0  0  0
    8.0622    1.5000    0.0000 C   0  0  0  0  0  0  0  0  0  0  0  0
    8.9282    2.0000    0.0000 C   0  0  0  0  0  0  0  0  0  0  0  0
    7.1962    2.0000    0.0000 C   0  0  0  0  0  0  0  0  0  0  0  0
    8.9282    3.0000    0.0000 C   0  0  0  0  0  0  0  0  0  0  0  0
    7.1962    3.0000    0.0000 C   0  0  0  0  0  0  0  0  0  0  0  0
    8.0622    3.5000    0.0000 C   0  0  0  0  0  0  0  0  0  0  0  0
  1  8  1  0  0  0  0 
  1  9  1  0  0  0  0 
  2  5  1  0  0  0  0 
  2  6  1  0  0  0  0 
  2  7  1  0  0  0  0 
  3 11  1  0  0  0  0 
  3 16  1  0  0  0  0 
  4 16  1  0  0  0  0 
  4 17  1  0  0  0  0 
  5  8  1  0  0  0  0 
  6  9  1  0  0  0  0 
  7 10  1  0  0  0  0 
 10 11  1  0  0  0  0 
 10 12  1  0  0  0  0 
 11 13  1  0  0  0  0 
 12 14  1  0  0  0  0 
 13 15  1  0  0  0  0 
 14 15  1  0  0  0  0 
 17 18  1  0  0  0  0 
 18 19  1  0  0  0  0 
 18 20  1  0  0  0  0 
 19 21  1  0  0  0  0 
 20 22  1  0  0  0  0 
 21 23  1  0  0  0  0 
 22 23  1  0  0  0  0 
M  ISO  1   1  32
M  END
> <PUBCHEM_COMPOUND_CID>
49119455

$$$$

  CDK     1223141415

 23 25  0  0  0  0  0  0  0  0999 V2000
    6.0223   -2.0313    0.0000 N   0  0  0  0  0  0  0  0  0  0  0  0
    4.1701    4.0875    0.0000 N   0  0  0  0  0  0  0  0  0  0  0  0
    3.9444    1.4514    0.0000 N   0  0  0  0  0  0  0  0  0  0  0  0
    4.4042   -2.0313    0.0000 N   0  0  0  0  0  0  0  0  0  0  0  0
    4.1255   -0.2712    0.0000 C   0  0  0  0  0  0  0  0  0  0  0  0
    4.7132   -1.0802    0.0000 C   0  0  0  0  0  0  0  0  0  0  0  0
    4.3511    2.3649    0.0000 C   0  0  0  0  0  0  0  0  0  0  0  0
    5.2132   -3.6191    0.0000 C   0  0  0  0  0  0  0  0  0  0  0  0
    5.2132   -2.6191    0.0000 C   0  0  0  0  0  0  0  0  0  0  0  0
    4.5322    0.6424    0.0000 C   0  0  0  0  0  0  0  0  0  0  0  0
    3.7634    3.1739    0.0000 C   0  0  0  0  0  0  0  0  0  0  0  0
    5.7132   -1.0802    0.0000 C   0  0  0  0  0  0  0  0  0  0  0  0
    6.0793   -4.1191    0.0000 C   0  0  0  0  0  0  0  0  0  0  0  0
    4.3472   -4.1191    0.0000 C   0  0  0  0  0  0  0  0  0  0  0  0
    5.2132   -5.6191    0.0000 C   0  0  0  0  0  0  0  0  0  0  0  0
    6.0793   -5.1191    0.0000 C   0  0  0  0  0  0  0  0  0  0  0  0
    4.3472   -5.1191    0.0000 C   0  0  0  0  0  0  0  0  0  0  0  0
    3.5823    4.8965    0.0000 C   0  0  0  0  0  0  0  0  0  0  0  0
    3.9890    5.8100    0.0000 C   0  0  0  0  0  0  0  0  0  0  0  0
    2.5878    4.7920    0.0000 C   0  0  0  0  0  0  0  0  0  0  0  0
    3.4013    6.6191    0.0000 C   0  0  0  0  0  0  0  0  0  0  0  0
    2.0000    5.6010    0.0000 C   0  0  0  0  0  0  0  0  0  0  0  0
    2.4067    6.5145    0.0000 C   0  0  0  0  0  0  0  0  0  0  0  0
  1  9  1  0  0  0  0 
  1 12  1  0  0  0  0 
  2 11  1  0  0  0  0 
  2 18  1  0  0  0  0 
  3  7  1  0  0  0  0 
  3 10  1  0  0  0  0 
  4  6  1  0  0  0  0 
  4  9  1  0  0  0  0 
  5  6  1  0  0  0  0 
  5 10  1  0  0  0  0 
  6 12  1  0  0  0  0 
  7 11  1  0  0  0  0 
  8  9  1  0  0  0  0 
  8 13  1  0  0  0  0 
  8 14  1  0  0  0  0 
 13 16  1  0  0  0  0 
 14 17  1  0  0  0  0 
 15 16  1  0  0  0  0 
 15 17  1  0  0  0  0 
 18 19  1  0  0  0  0 
 18 20  1  0  0  0  0 
 19 21  1  0  0  0  0 
 20 22  1  0  0  0  0 
 21 23  1  0  0  0  0 
 22 23  1  0  0  0  0 
M  ISO  1   1  32
M  ISO  1   2  16
M  END
> <PUBCHEM_COMPOUND_CID>
28542993

$$$$

  CDK     1223141415

 23 25  0  0  0  0  0  0  0  0999 V2000
    4.5853   -2.1335    0.0000 N   0  0  0  0  0  0  0  0  0  0  0  0
    4.7132    0.5401    0.0000 N   0  0  0  0  0  0  0  0  0  0  0  0
    3.9444    3.0717    0.0000 N   0  0  0  0  0  0  0  0  0  0  0  0
    6.2033   -2.1335    0.0000 N   0  0  0  0  0  0  0  0  0  0  0  0
    5.8943   -1.1825    0.0000 N   0  0  0  0  0  0  0  0  0  0  0  0
    5.3943   -3.7213    0.0000 C   0  0  0  0  0  0  0  0  0  0  0  0
    5.3943   -5.7213    0.0000 C   0  0  0  0  0  0  0  0  0  0  0  0
    4.5283   -5.2213    0.0000 C   0  0  0  0  0  0  0  0  0  0  0  0
    6.2603   -5.2213    0.0000 C   0  0  0  0  0  0  0  0  0  0  0  0
    4.5283   -4.2213    0.0000 C   0  0  0  0  0  0  0  0  0  0  0  0
    6.2603   -4.2213    0.0000 C   0  0  0  0  0  0  0  0  0  0  0  0
    5.3943   -2.7213    0.0000 C   0  0  0  0  0  0  0  0  0  0  0  0
    3.7634    4.7942    0.0000 C   0  0  0  0  0  0  0  0  0  0  0  0
    4.8943   -1.1825    0.0000 C   0  0  0  0  0  0  0  0  0  0  0  0
    4.3065   -0.3734    0.0000 C   0  0  0  0  0  0  0  0  0  0  0  0
    2.5878    6.4123    0.0000 C   0  0  0  0  0  0  0  0  0  0  0  0
    4.5322    2.2627    0.0000 C   0  0  0  0  0  0  0  0  0  0  0  0
    4.1701    5.7078    0.0000 C   0  0  0  0  0  0  0  0  0  0  0  0
    2.7688    4.6897    0.0000 C   0  0  0  0  0  0  0  0  0  0  0  0
    4.3511    3.9852    0.0000 C   0  0  0  0  0  0  0  0  0  0  0  0
    3.5823    6.5168    0.0000 C   0  0  0  0  0  0  0  0  0  0  0  0
    2.1810    5.4987    0.0000 C   0  0  0  0  0  0  0  0  0  0  0  0
    4.1254    1.3491    0.0000 C   0  0  0  0  0  0  0  0  0  0  0  0
  1 12  1  0  0  0  0 
  1 14  1  0  0  0  0 
  2 15  1  0  0  0  0 
  2 23  1  0  0  0  0 
  3 17  1  0  0  0  0 
  3 20  1  0  0  0  0 
  4  5  1  0  0  0  0 
  4 12  1  0  0  0  0 
  5 14  1  0  0  0  0 
  6 10  1  0  0  0  0 
  6 11  1  0  0  0  0 
  6 12  1  0  0  0  0 
  7  8  1  0  0  0  0 
  7  9  1  0  0  0  0 
  8 10  1  0  0  0  0 
  9 11  1  0  0  0  0 
 13 18  1  0  0  0  0 
 13 19  1  0  0  0  0 
 13 20  1  0  0  0  0 
 14 15  1  0  0  0  0 
 16 21  1  0  0  0  0 
 16 22  1  0  0  0  0 
 17 23  1  0  0  0  0 
 18 21  1  0  0  0  0 
 19 22  1  0  0  0  0 
M  ISO  1   1  16
M  ISO  1   2  16
M  END
> <PUBCHEM_COMPOUND_CID>
42006409

$$$$

  CDK     1223141415

 23 25  0  0  0  0  0  0  0  0999 V2000
    4.5981   -2.2500    0.0000 N   0  0  0  0  0  0  0  0  0  0  0  0
    4.5981   -1.2500    0.0000 N   0  0  0  0  0  0  0  0  0  0  0  0
    4.5981    0.7500    0.0000 N   0  0  0  0  0  0  0  0  0  0  0  0
    5.4641    3.2500    0.0000 N   0  0  0  0  0  0  0  0  0  0  0  0
    5.4641   -0.7500    0.0000 C   0  0  0  0  0  0  0  0  0  0  0  0
    3.7321   -0.7500    0.0000 C   0  0  0  0  0  0  0  0  0  0  0  0
    5.4641    0.2500    0.0000 C   0  0  0  0  0  0  0  0  0  0  0  0
    3.7321    0.2500    0.0000 C   0  0  0  0  0  0  0  0  0  0  0  0
    4.5981    1.7500    0.0000 C   0  0  0  0  0  0  0  0  0  0  0  0
    4.5981   -3.2500    0.0000 C   0  0  0  0  0  0  0  0  0  0  0  0
    3.7321   -3.7500    0.0000 C   0  0  0  0  0  0  0  0  0  0  0  0
    5.4641    2.2500    0.0000 C   0  0  0  0  0  0  0  0  0  0  0  0
    3.7321   -4.7500    0.0000 C   0  0  0  0  0  0  0  0  0  0  0  0
    2.8660   -3.2500    0.0000 C   0  0  0  0  0  0  0  0  0  0  0  0
    2.8660   -5.2500    0.0000 C   0  0  0  0  0  0  0  0  0  0  0  0
    2.0000   -3.7500    0.0000 C   0  0  0  0  0  0  0  0  0  0  0  0
    6.3301    3.7500    0.0000 C   0  0  0  0  0  0  0  0  0  0  0  0
    2.0000   -4.7500    0.0000 C   0  0  0  0  0  0  0  0  0  0  0  0
    7.1962    3.2500    0.0000 C   0  0  0  0  0  0  0  0  0  0  0  0
    6.3301    4.7500    0.0000 C   0  0  0  0  0  0  0  0  0  0  0  0
    8.0622    3.7500    0.0000 C   0  0  0  0  0  0  0  0  0  0  0  0
    7.1962    5.2500    0.0000 C   0  0  0  0  0  0  0  0  0  0  0  0
    8.0622    4.7500    0.0000 C   0  0  0  0  0  0  0  0  0  0  0  0
  1  2  1  0  0  0  0 
  1 10  1  0  0  0  0 
  2  5  1  0  0  0  0 
  2  6  1  0  0  0  0 
  3  7  1  0  0  0  0 
  3  8  1  0  0  0  0 
  3  9  1  0  0  0  0 
  4 12  1  0  0  0  0 
  4 17  1  0  0  0  0 
  5  7  1  0  0  0  0 
  6  8  1  0  0  0  0 
  9 12  1  0  0  0  0 
 10 11  1  0  0  0  0 
 11 13  1  0  0  0  0 
 11 14  1  0  0  0  0 
 13 15  1  0  0  0  0 
 14 16  1  0  0  0  0 
 15 18  1  0  0  0  0 
 16 18  1  0  0  0  0 
 17 19  1  0  0  0  0 
 17 20  1  0  0  0  0 
 19 21  1  0  0  0  0 
 20 22  1  0  0  0  0 
 21 23  1  0  0  0  0 
 22 23  1  0  0  0  0 
M  ISO  1   1  32
M  END
> <PUBCHEM_COMPOUND_CID>
38813203

$$$$

  CDK     1223141415

 23 25  0  0  0  0  0  0  0  0999 V2000
    7.0255   -1.6012    0.0000 N   0  0  0  0  0  0  0  0  0  0  0  0
    5.2460   -1.5079    0.0000 N   0  0  0  0  0  0  0  0  0  0  0  0
   14.0013    1.4921    0.0000 N   0  0  0  0  0  0  0  0  0  0  0  0
   12.2217    0.3988    0.0000 N   0  0  0  0  0  0  0  0  0  0  0  0
    9.6236   -1.1012    0.0000 N   0  0  0  0  0  0  0  0  0  0  0  0
    5.0768    0.1012    0.0000 N   0  0  0  0  0  0  0  0  0  0  0  0
    6.0550   -0.1067    0.0000 N   0  0  0  0  0  0  0  0  0  0  0  0
   11.3557   -1.1012    0.0000 C   0  0  0  0  0  0  0  0  0  0  0  0
   10.4896   -1.6012    0.0000 C   0  0  0  0  0  0  0  0  0  0  0  0
   12.2217    1.3988    0.0000 C   0  0  0  0  0  0  0  0  0  0  0  0
   11.3557   -0.1012    0.0000 C   0  0  0  0  0  0  0  0  0  0  0  0
   12.2217   -1.6012    0.0000 C   0  0  0  0  0  0  0  0  0  0  0  0
   10.4896   -2.6012    0.0000 C   0  0  0  0  0  0  0  0  0  0  0  0
   13.0877    1.8988    0.0000 C   0  0  0  0  0  0  0  0  0  0  0  0
   12.2217   -2.6012    0.0000 C   0  0  0  0  0  0  0  0  0  0  0  0
   11.3557   -3.1012    0.0000 C   0  0  0  0  0  0  0  0  0  0  0  0
    8.7576   -1.6012    0.0000 C   0  0  0  0  0  0  0  0  0  0  0  0
   13.1922    2.8933    0.0000 C   0  0  0  0  0  0  0  0  0  0  0  0
    7.8916   -1.1012    0.0000 C   0  0  0  0  0  0  0  0  0  0  0  0
   14.1704    3.1012    0.0000 C   0  0  0  0  0  0  0  0  0  0  0  0
   14.6704    2.2352    0.0000 C   0  0  0  0  0  0  0  0  0  0  0  0
    4.5768   -0.7648    0.0000 C   0  0  0  0  0  0  0  0  0  0  0  0
    6.1595   -1.1012    0.0000 C   0  0  0  0  0  0  0  0  0  0  0  0
  1 19  1  0  0  0  0 
  1 23  1  0  0  0  0 
  2 22  1  0  0  0  0 
  2 23  1  0  0  0  0 
  3 14  1  0  0  0  0 
  3 21  1  0  0  0  0 
  4 10  1  0  0  0  0 
  4 11  1  0  0  0  0 
  5  9  1  0  0  0  0 
  5 17  1  0  0  0  0 
  6  7  1  0  0  0  0 
  6 22  1  0  0  0  0 
  7 23  1  0  0  0  0 
  8  9  1  0  0  0  0 
  8 11  1  0  0  0  0 
  8 12  1  0  0  0  0 
  9 13  1  0  0  0  0 
 10 14  1  0  0  0  0 
 12 15  1  0  0  0  0 
 13 16  1  0  0  0  0 
 14 18  1  0  0  0  0 
 15 16  1  0  0  0  0 
 17 19  1  0  0  0  0 
 18 20  1  0  0  0  0 
 20 21  1  0  0  0  0 
M  ISO  1   1  32
M  ISO  1   2  32
M  ISO  1   3  16
M  END
> <PUBCHEM_COMPOUND_CID>
8351491

$$$$

  CDK     1223141415

 23 25  0  0  0  0  0  0  0  0999 V2000
    5.4641   -2.0000    0.0000 N   0  0  0  0  0  0  0  0  0  0  0  0
    6.3301   -1.5000    0.0000 N   0  0  3  0  0  0  0  0  0  0  0  0
    5.4641    1.0000    0.0000 N   0  0  0  0  0  0  0  0  0  0  0  0
    4.5981   -2.5000    0.0000 C   0  0  0  0  0  0  0  0  0  0  0  0
    6.3301   -0.5000    0.0000 C   0  0  0  0  0  0  0  0  0  0  0  0
    7.1962   -2.0000    0.0000 C   0  0  0  0  0  0  0  0  0  0  0  0
    3.7320   -2.0000    0.0000 C   0  0  0  0  0  0  0  0  0  0  0  0
    4.5981   -3.5000    0.0000 C   0  0  0  0  0  0  0  0  0  0  0  0
    3.7320   -4.0000    0.0000 C   0  0  0  0  0  0  0  0  0  0  0  0
    5.4641    0.0000    0.0000 C   0  0  0  0  0  0  0  0  0  0  0  0
    7.1962   -3.0000    0.0000 C   0  0  0  0  0  0  0  0  0  0  0  0
    8.0622   -1.5000    0.0000 C   0  0  0  0  0  0  0  0  0  0  0  0
    2.8660   -2.5000    0.0000 C   0  0  0  0  0  0  0  0  0  0  0  0
    2.8660   -3.5000    0.0000 C   0  0  0  0  0  0  0  0  0  0  0  0
    8.0622   -3.5000    0.0000 C   0  0  0  0  0  0  0  0  0  0  0  0
    8.9282   -2.0000    0.0000 C   0  0  0  0  0  0  0  0  0  0  0  0
    8.9282   -3.0000    0.0000 C   0  0  0  0  0  0  0  0  0  0  0  0
    4.5981    1.5000    0.0000 C   0  0  0  0  0  0  0  0  0  0  0  0
    4.5981    2.5000    0.0000 C   0  0  0  0  0  0  0  0  0  0  0  0
    3.7320    1.0000    0.0000 C   0  0  0  0  0  0  0  0  0  0  0  0
    3.7320    3.0000    0.0000 C   0  0  0  0  0  0  0  0  0  0  0  0
    2.8660    1.5000    0.0000 C   0  0  0  0  0  0  0  0  0  0  0  0
    2.8660    2.5000    0.0000 C   0  0  0  0  0  0  0  0  0  0  0  0
  1  2  1  0  0  0  0 
  1  4  1  0  0  0  0 
  2  5  1  0  0  0  0 
  2  6  1  0  0  0  0 
  3 10  1  0  0  0  0 
  3 18  1  0  0  0  0 
  4  7  1  0  0  0  0 
  4  8  1  0  0  0  0 
  5 10  1  0  0  0  0 
  6 11  1  0  0  0  0 
  6 12  1  0  0  0  0 
  7 13  1  0  0  0  0 
  8  9  1  0  0  0  0 
  9 14  1  0  0  0  0 
 11 15  1  0  0  0  0 
 12 16  1  0  0  0  0 
 13 14  1  0  0  0  0 
 15 17  1  0  0  0  0 
 16 17  1  0  0  0  0 
 18 19  1  0  0  0  0 
 18 20  1  0  0  0  0 
 19 21  1  0  0  0  0 
 20 22  1  0  0  0  0 
 21 23  1  0  0  0  0 
 22 23  1  0  0  0  0 
M  ISO  1   1  32
M  END
> <PUBCHEM_COMPOUND_CID>
43872589

$$$$
