
  CDK     0202151410

 21 22  0  0  0  0  0  0  0  0999 V2000
    4.5853   -2.1335    0.0000 O   0  0  0  0  0  0  0  0  0  0  0  0
    3.6622   -5.7213    0.0000 O   0  0  0  0  0  0  0  0  0  0  0  0
    7.1263   -5.7213    0.0000 O   0  0  0  0  0  0  0  0  0  0  0  0
    4.7132    0.5401    0.0000 O   0  0  0  0  0  0  0  0  0  0  0  0
    3.1309    1.2446    0.0000 O   0  0  0  0  0  0  0  0  0  0  0  0
    3.9444    3.0717    0.0000 N   0  0  0  0  0  0  0  0  0  0  0  0
    6.2033   -2.1335    0.0000 N   0  0  0  0  0  0  0  0  0  0  0  0
    5.8943   -1.1825    0.0000 N   0  0  0  0  0  0  0  0  0  0  0  0
    5.3943   -3.7213    0.0000 C   0  0  0  0  0  0  0  0  0  0  0  0
    5.3943   -5.7213    0.0000 C   0  0  0  0  0  0  0  0  0  0  0  0
    4.5283   -5.2213    0.0000 C   0  0  0  0  0  0  0  0  0  0  0  0
    6.2603   -5.2213    0.0000 C   0  0  0  0  0  0  0  0  0  0  0  0
    4.5283   -4.2213    0.0000 C   0  0  0  0  0  0  0  0  0  0  0  0
    6.2603   -4.2213    0.0000 C   0  0  0  0  0  0  0  0  0  0  0  0
    5.3943   -2.7213    0.0000 C   0  0  0  0  0  0  0  0  0  0  0  0
    3.7634    4.7942    0.0000 C   0  0  0  0  0  0  0  0  0  0  0  0
    4.8943   -1.1825    0.0000 C   0  0  0  0  0  0  0  0  0  0  0  0
    4.3065   -0.3734    0.0000 C   0  0  0  0  0  0  0  0  0  0  0  0
    4.5322    2.2627    0.0000 C   0  0  0  0  0  0  0  0  0  0  0  0
    4.3511    3.9852    0.0000 C   0  0  0  0  0  0  0  0  0  0  0  0
    4.1254    1.3491    0.0000 C   0  0  0  0  0  0  0  0  0  0  0  0
  1 15  1  0  0  0  0 
  1 17  1  0  0  0  0 
  2 11  1  0  0  0  0 
  3 12  1  0  0  0  0 
  4 18  1  0  0  0  0 
  4 21  1  0  0  0  0 
  5 21  1  0  0  0  0 
  6 19  1  0  0  0  0 
  6 20  1  0  0  0  0 
  7  8  1  0  0  0  0 
  7 15  1  0  0  0  0 
  8 17  1  0  0  0  0 
  9 13  1  0  0  0  0 
  9 14  1  0  0  0  0 
  9 15  1  0  0  0  0 
 10 11  1  0  0  0  0 
 10 12  1  0  0  0  0 
 11 13  1  0  0  0  0 
 12 14  1  0  0  0  0 
 16 20  1  0  0  0  0 
 17 18  1  0  0  0  0 
 19 21  1  0  0  0  0 
M  END
> <PUBCHEM_COMPOUND_CID>
42006409

$$$$

  CDK     0202151410

 19 19  0  0  0  0  0  0  0  0999 V2000
    5.2267   -1.7762    0.0000 O   0  0  0  0  0  0  0  0  0  0  0  0
    5.5927    0.5898    0.0000 O   0  0  0  0  0  0  0  0  0  0  0  0
    6.4587   -0.9102    0.0000 N   0  0  0  0  0  0  0  0  0  0  0  0
    4.7267   -0.9102    0.0000 C   0  0  3  0  0  0  0  0  0  0  0  0
    4.2267   -0.0442    0.0000 C   0  0  0  0  0  0  0  0  0  0  0  0
    3.8607   -1.4102    0.0000 C   0  0  0  0  0  0  0  0  0  0  0  0
    4.0530    0.9406    0.0000 C   0  0  0  0  0  0  0  0  0  0  0  0
    5.5927   -0.4102    0.0000 C   0  0  0  0  0  0  0  0  0  0  0  0
    2.9946   -0.9102    0.0000 C   0  0  0  0  0  0  0  0  0  0  0  0
    3.8607   -2.4102    0.0000 C   0  0  0  0  0  0  0  0  0  0  0  0
    3.1133    1.2826    0.0000 C   0  0  0  0  0  0  0  0  0  0  0  0
    4.8191    1.5834    0.0000 C   0  0  0  0  0  0  0  0  0  0  0  0
    7.3248   -0.4102    0.0000 C   0  0  0  0  0  0  0  0  0  0  0  0
    8.1908   -0.9102    0.0000 C   0  0  0  0  0  0  0  0  0  0  0  0
    9.0568   -0.4102    0.0000 C   0  0  0  0  0  0  0  0  0  0  0  0
    7.3248    0.5898    0.0000 C   0  0  0  0  0  0  0  0  0  0  0  0
    9.0568    0.5898    0.0000 C   0  0  0  0  0  0  0  0  0  0  0  0
    8.1908    1.0898    0.0000 C   0  0  0  0  0  0  0  0  0  0  0  0
    9.9508   -0.9449    0.0000 C   0  0  0  0  0  0  0  0  0  0  0  0
  1  4  1  0  0  0  0 
  2  8  1  0  0  0  0 
  3  8  1  0  0  0  0 
  3 13  1  0  0  0  0 
  4  5  1  0  0  0  0 
  4  6  1  0  0  0  0 
  4  8  1  0  0  0  0 
  5  7  1  0  0  0  0 
  6  9  1  0  0  0  0 
  6 10  1  0  0  0  0 
  7 11  1  0  0  0  0 
  7 12  1  0  0  0  0 
 13 14  1  0  0  0  0 
 13 16  1  0  0  0  0 
 14 15  1  0  0  0  0 
 15 17  1  0  0  0  0 
 15 19  1  0  0  0  0 
 16 18  1  0  0  0  0 
 17 18  1  0  0  0  0 
M  END
> <PUBCHEM_COMPOUND_CID>
25095125

$$$$

  CDK     0202151410

 21 22  0  0  0  0  0  0  0  0999 V2000
    4.5853   -2.1335    0.0000 O   0  0  0  0  0  0  0  0  0  0  0  0
    3.6622   -5.7213    0.0000 O   0  0  0  0  0  0  0  0  0  0  0  0
    7.1263   -5.7213    0.0000 O   0  0  0  0  0  0  0  0  0  0  0  0
    4.7132    0.5401    0.0000 O   0  0  0  0  0  0  0  0  0  0  0  0
    3.1309    1.2446    0.0000 O   0  0  0  0  0  0  0  0  0  0  0  0
    3.9444    3.0717    0.0000 N   0  0  0  0  0  0  0  0  0  0  0  0
    6.2033   -2.1335    0.0000 N   0  0  0  0  0  0  0  0  0  0  0  0
    5.8943   -1.1825    0.0000 N   0  0  0  0  0  0  0  0  0  0  0  0
    5.3943   -3.7213    0.0000 C   0  0  0  0  0  0  0  0  0  0  0  0
    5.3943   -5.7213    0.0000 C   0  0  0  0  0  0  0  0  0  0  0  0
    4.5283   -5.2213    0.0000 C   0  0  0  0  0  0  0  0  0  0  0  0
    6.2603   -5.2213    0.0000 C   0  0  0  0  0  0  0  0  0  0  0  0
    4.5283   -4.2213    0.0000 C   0  0  0  0  0  0  0  0  0  0  0  0
    6.2603   -4.2213    0.0000 C   0  0  0  0  0  0  0  0  0  0  0  0
    5.3943   -2.7213    0.0000 C   0  0  0  0  0  0  0  0  0  0  0  0
    3.7634    4.7942    0.0000 C   0  0  0  0  0  0  0  0  0  0  0  0
    4.8943   -1.1825    0.0000 C   0  0  0  0  0  0  0  0  0  0  0  0
    4.3065   -0.3734    0.0000 C   0  0  0  0  0  0  0  0  0  0  0  0
    4.5322    2.2627    0.0000 C   0  0  0  0  0  0  0  0  0  0  0  0
    4.3511    3.9852    0.0000 C   0  0  0  0  0  0  0  0  0  0  0  0
    4.1254    1.3491    0.0000 C   0  0  0  0  0  0  0  0  0  0  0  0
  1 15  1  0  0  0  0 
  1 17  1  0  0  0  0 
  2 11  1  0  0  0  0 
  3 12  1  0  0  0  0 
  4 18  1  0  0  0  0 
  4 21  1  0  0  0  0 
  5 21  1  0  0  0  0 
  6 19  1  0  0  0  0 
  6 20  1  0  0  0  0 
  7  8  1  0  0  0  0 
  7 15  1  0  0  0  0 
  8 17  1  0  0  0  0 
  9 13  1  0  0  0  0 
  9 14  1  0  0  0  0 
  9 15  1  0  0  0  0 
 10 11  1  0  0  0  0 
 10 12  1  0  0  0  0 
 11 13  1  0  0  0  0 
 12 14  1  0  0  0  0 
 16 20  1  0  0  0  0 
 17 18  1  0  0  0  0 
 19 21  1  0  0  0  0 
M  END
> <PUBCHEM_COMPOUND_CID>
42006409

$$$$

  CDK     0202151410

 19 19  0  0  0  0  0  0  0  0999 V2000
    4.5981   -0.2500    0.0000 O   0  0  0  0  0  0  0  0  0  0  0  0
    6.3301    0.7500    0.0000 C   0  0  0  0  0  0  0  0  0  0  0  0
    6.3301   -0.2500    0.0000 C   0  0  0  0  0  0  0  0  0  0  0  0
    6.3301    1.7500    0.0000 C   0  0  0  0  0  0  0  0  0  0  0  0
    7.3301    0.7500    0.0000 C   0  0  0  0  0  0  0  0  0  0  0  0
    5.3301    0.7500    0.0000 C   0  0  0  0  0  0  0  0  0  0  0  0
    7.1962   -0.7500    0.0000 C   0  0  0  0  0  0  0  0  0  0  0  0
    5.4641   -0.7500    0.0000 C   0  0  0  0  0  0  0  0  0  0  0  0
    7.1962   -1.7500    0.0000 C   0  0  0  0  0  0  0  0  0  0  0  0
    7.8301   -0.1160    0.0000 C   0  0  0  0  0  0  0  0  0  0  0  0
    7.1962    2.2500    0.0000 C   0  0  0  0  0  0  0  0  0  0  0  0
    7.8301    1.6160    0.0000 C   0  0  0  0  0  0  0  0  0  0  0  0
    5.4641    2.2500    0.0000 C   0  0  0  0  0  0  0  0  0  0  0  0
    5.4641   -1.7500    0.0000 C   0  0  0  0  0  0  0  0  0  0  0  0
    6.3301   -2.2500    0.0000 C   0  0  0  0  0  0  0  0  0  0  0  0
    8.0622   -2.2500    0.0000 C   0  0  0  0  0  0  0  0  0  0  0  0
    4.5981   -2.2500    0.0000 C   0  0  0  0  0  0  0  0  0  0  0  0
    8.0622   -3.2500    0.0000 C   0  0  0  0  0  0  0  0  0  0  0  0
    8.9282   -1.7500    0.0000 C   0  0  0  0  0  0  0  0  0  0  0  0
  1  8  1  0  0  0  0 
  2  3  1  0  0  0  0 
  2  4  1  0  0  0  0 
  2  5  1  0  0  0  0 
  2  6  1  0  0  0  0 
  3  7  1  0  0  0  0 
  3  8  1  0  0  0  0 
  4 11  1  0  0  0  0 
  4 13  1  0  0  0  0 
  5 10  1  0  0  0  0 
  5 12  1  0  0  0  0 
  7  9  1  0  0  0  0 
  8 14  1  0  0  0  0 
  9 15  1  0  0  0  0 
  9 16  1  0  0  0  0 
 14 15  1  0  0  0  0 
 14 17  1  0  0  0  0 
 16 18  1  0  0  0  0 
 16 19  1  0  0  0  0 
M  END
> <PUBCHEM_COMPOUND_CID>
21056172

$$$$
