42006409
  CDK     0101151218

 55 57  0  0  0  0  0  0  0  0999 V2000
    4.5853   -2.1335    0.0000 O   0  0  0  0  0  0  0  0  0  0  0  0
    5.3943   -6.7213    0.0000 O   0  0  0  0  0  0  0  0  0  0  0  0
    3.6622   -5.7213    0.0000 O   0  0  0  0  0  0  0  0  0  0  0  0
    7.1263   -5.7213    0.0000 O   0  0  0  0  0  0  0  0  0  0  0  0
    4.7132    0.5401    0.0000 O   0  0  0  0  0  0  0  0  0  0  0  0
    5.3457    4.0898    0.0000 O   0  0  0  0  0  0  0  0  0  0  0  0
    3.1309    1.2446    0.0000 O   0  0  0  0  0  0  0  0  0  0  0  0
    3.9444    3.0717    0.0000 N   0  0  0  0  0  0  0  0  0  0  0  0
    6.2033   -2.1335    0.0000 N   0  0  0  0  0  0  0  0  0  0  0  0
    5.8943   -1.1825    0.0000 N   0  0  0  0  0  0  0  0  0  0  0  0
    5.3943   -3.7213    0.0000 C   0  0  0  0  0  0  0  0  0  0  0  0
    5.3943   -5.7213    0.0000 C   0  0  0  0  0  0  0  0  0  0  0  0
    4.5283   -5.2213    0.0000 C   0  0  0  0  0  0  0  0  0  0  0  0
    6.2603   -5.2213    0.0000 C   0  0  0  0  0  0  0  0  0  0  0  0
    4.5283   -4.2213    0.0000 C   0  0  0  0  0  0  0  0  0  0  0  0
    6.2603   -4.2213    0.0000 C   0  0  0  0  0  0  0  0  0  0  0  0
    5.3943   -2.7213    0.0000 C   0  0  0  0  0  0  0  0  0  0  0  0
    3.7634    4.7942    0.0000 C   0  0  0  0  0  0  0  0  0  0  0  0
    4.8943   -1.1825    0.0000 C   0  0  0  0  0  0  0  0  0  0  0  0
    4.3065   -0.3734    0.0000 C   0  0  0  0  0  0  0  0  0  0  0  0
    2.5878    6.4123    0.0000 C   0  0  0  0  0  0  0  0  0  0  0  0
    4.5322    2.2627    0.0000 C   0  0  0  0  0  0  0  0  0  0  0  0
    4.1701    5.7078    0.0000 C   0  0  0  0  0  0  0  0  0  0  0  0
    2.7688    4.6897    0.0000 C   0  0  0  0  0  0  0  0  0  0  0  0
    4.3511    3.9852    0.0000 C   0  0  0  0  0  0  0  0  0  0  0  0
    3.5823    6.5168    0.0000 C   0  0  0  0  0  0  0  0  0  0  0  0
    2.1810    5.4987    0.0000 C   0  0  0  0  0  0  0  0  0  0  0  0
    4.1254    1.3491    0.0000 C   0  0  0  0  0  0  0  0  0  0  0  0
    2.0000    7.2213    0.0000 C   0  0  0  0  0  0  0  0  0  0  0  0
    4.5283   -7.2213    0.0000 C   0  0  0  0  0  0  0  0  0  0  0  0
    2.7962   -5.2213    0.0000 C   0  0  0  0  0  0  0  0  0  0  0  0
    7.9924   -5.2213    0.0000 C   0  0  0  0  0  0  0  0  0  0  0  0
    3.9913   -3.9113    0.0000 H   0  0  0  0  0  0  0  0  0  0  0  0
    6.7972   -3.9113    0.0000 H   0  0  0  0  0  0  0  0  0  0  0  0
    3.7925   -0.0267    0.0000 H   0  0  0  0  0  0  0  0  0  0  0  0
    3.8758   -0.8194    0.0000 H   0  0  0  0  0  0  0  0  0  0  0  0
    5.0462    1.9160    0.0000 H   0  0  0  0  0  0  0  0  0  0  0  0
    4.9629    2.7087    0.0000 H   0  0  0  0  0  0  0  0  0  0  0  0
    4.7867    5.7726    0.0000 H   0  0  0  0  0  0  0  0  0  0  0  0
    2.5167    4.1233    0.0000 H   0  0  0  0  0  0  0  0  0  0  0  0
    3.8345    7.0832    0.0000 H   0  0  0  0  0  0  0  0  0  0  0  0
    1.5644    5.4339    0.0000 H   0  0  0  0  0  0  0  0  0  0  0  0
    3.3278    3.0069    0.0000 H   0  0  0  0  0  0  0  0  0  0  0  0
    2.5016    7.5857    0.0000 H   0  0  0  0  0  0  0  0  0  0  0  0
    1.6356    7.7229    0.0000 H   0  0  0  0  0  0  0  0  0  0  0  0
    1.4984    6.8569    0.0000 H   0  0  0  0  0  0  0  0  0  0  0  0
    4.2183   -6.6844    0.0000 H   0  0  0  0  0  0  0  0  0  0  0  0
    3.9913   -7.5313    0.0000 H   0  0  0  0  0  0  0  0  0  0  0  0
    4.8383   -7.7582    0.0000 H   0  0  0  0  0  0  0  0  0  0  0  0
    3.1062   -4.6844    0.0000 H   0  0  0  0  0  0  0  0  0  0  0  0
    2.2593   -4.9113    0.0000 H   0  0  0  0  0  0  0  0  0  0  0  0
    2.4862   -5.7582    0.0000 H   0  0  0  0  0  0  0  0  0  0  0  0
    8.3024   -5.7582    0.0000 H   0  0  0  0  0  0  0  0  0  0  0  0
    8.5293   -4.9113    0.0000 H   0  0  0  0  0  0  0  0  0  0  0  0
    7.6824   -4.6844    0.0000 H   0  0  0  0  0  0  0  0  0  0  0  0
  1 17  1  0  0  0  0 
  1 19  1  0  0  0  0 
  2 12  1  0  0  0  0 
  2 30  1  0  0  0  0 
  3 13  1  0  0  0  0 
  3 31  1  0  0  0  0 
  4 14  1  0  0  0  0 
  4 32  1  0  0  0  0 
  5 20  1  0  0  0  0 
  5 28  1  0  0  0  0 
  6 25  2  0  0  0  0 
  7 28  2  0  0  0  0 
  8 22  1  0  0  0  0 
  8 25  1  0  0  0  0 
  8 43  1  0  0  0  0 
  9 10  1  0  0  0  0 
  9 17  2  0  0  0  0 
 10 19  2  0  0  0  0 
 11 15  2  0  0  0  0 
 11 16  1  0  0  0  0 
 11 17  1  0  0  0  0 
 12 13  2  0  0  0  0 
 12 14  1  0  0  0  0 
 13 15  1  0  0  0  0 
 14 16  2  0  0  0  0 
 15 33  1  0  0  0  0 
 16 34  1  0  0  0  0 
 18 23  2  0  0  0  0 
 18 24  1  0  0  0  0 
 18 25  1  0  0  0  0 
 19 20  1  0  0  0  0 
 20 35  1  0  0  0  0 
 20 36  1  0  0  0  0 
 21 26  2  0  0  0  0 
 21 27  1  0  0  0  0 
 21 29  1  0  0  0  0 
 22 28  1  0  0  0  0 
 22 37  1  0  0  0  0 
 22 38  1  0  0  0  0 
 23 26  1  0  0  0  0 
 23 39  1  0  0  0  0 
 24 27  2  0  0  0  0 
 24 40  1  0  0  0  0 
 26 41  1  0  0  0  0 
 27 42  1  0  0  0  0 
 29 44  1  0  0  0  0 
 29 45  1  0  0  0  0 
 29 46  1  0  0  0  0 
 30 47  1  0  0  0  0 
 30 48  1  0  0  0  0 
 30 49  1  0  0  0  0 
 31 50  1  0  0  0  0 
 31 51  1  0  0  0  0 
 31 52  1  0  0  0  0 
 32 53  1  0  0  0  0 
 32 54  1  0  0  0  0 
 32 55  1  0  0  0  0 
M  END
> <cdk:Title>
42006409

> <cdk:Remark>
null

> <PUBCHEM_COMPOUND_CID>
42006409

> <PUBCHEM_COMPOUND_CANONICALIZED>
1

> <PUBCHEM_CACTVS_COMPLEXITY>
600

> <PUBCHEM_CACTVS_HBOND_ACCEPTOR>
9

> <PUBCHEM_CACTVS_HBOND_DONOR>
1

> <PUBCHEM_CACTVS_ROTATABLE_BOND>
10

> <PUBCHEM_CACTVS_SUBSKEYS>
AAADceB7OAAAAAAAAAAAAAAAAAAAAWAAAAAwYAAAAAAAAAAB0AAAHgAYAAAADAThmgYyDoLABECqAiHyGAaSCAAsIAAaiKH+jNgPJ7KEtT+PMSplzhWaqYf6/DzOYAABCAAAQADAAAIQAACAAAAAAAAAAA==

> <PUBCHEM_IUPAC_OPENEYE_NAME>
[5-(3,4,5-trimethoxyphenyl)-1,3,4-oxadiazol-2-yl]methyl 2-[(4-methylbenzoyl)amino]acetate

> <PUBCHEM_IUPAC_CAS_NAME>
2-[[(4-methylphenyl)-oxomethyl]amino]acetic acid [5-(3,4,5-trimethoxyphenyl)-1,3,4-oxadiazol-2-yl]methyl ester

> <PUBCHEM_IUPAC_NAME>
[5-(3,4,5-trimethoxyphenyl)-1,3,4-oxadiazol-2-yl]methyl 2-[(4-methylbenzoyl)amino]acetate

> <PUBCHEM_IUPAC_SYSTEMATIC_NAME>
[5-(3,4,5-trimethoxyphenyl)-1,3,4-oxadiazol-2-yl]methyl 2-[(4-methylphenyl)carbonylamino]ethanoate

> <PUBCHEM_IUPAC_TRADITIONAL_NAME>
2-(p-toluoylamino)acetic acid [5-(3,4,5-trimethoxyphenyl)-1,3,4-oxadiazol-2-yl]methyl ester

> <PUBCHEM_IUPAC_INCHI>
InChI=1S/C22H23N3O7/c1-13-5-7-14(8-6-13)21(27)23-11-19(26)31-12-18-24-25-22(32-18)15-9-16(28-2)20(30-4)17(10-15)29-3/h5-10H,11-12H2,1-4H3,(H,23,27)

> <PUBCHEM_IUPAC_INCHIKEY>
JCQMUKDNUVQTPU-UHFFFAOYSA-N

> <PUBCHEM_XLOGP3_AA>
2.4

> <PUBCHEM_EXACT_MASS>
441.1536

> <PUBCHEM_MOLECULAR_FORMULA>
C22H23N3O7

> <PUBCHEM_MOLECULAR_WEIGHT>
441.43392

> <PUBCHEM_OPENEYE_CAN_SMILES>
CC1=CC=C(C=C1)C(=O)NCC(=O)OCC2=NN=C(O2)C3=CC(=C(C(=C3)OC)OC)OC

> <PUBCHEM_OPENEYE_ISO_SMILES>
CC1=CC=C(C=C1)C(=O)NCC(=O)OCC2=NN=C(O2)C3=CC(=C(C(=C3)OC)OC)OC

> <PUBCHEM_CACTVS_TPSA>
122

> <PUBCHEM_MONOISOTOPIC_WEIGHT>
441.1536

> <PUBCHEM_TOTAL_CHARGE>
0

> <PUBCHEM_HEAVY_ATOM_COUNT>
32

> <PUBCHEM_ATOM_DEF_STEREO_COUNT>
0

> <PUBCHEM_ATOM_UDEF_STEREO_COUNT>
0

> <PUBCHEM_BOND_DEF_STEREO_COUNT>
0

> <PUBCHEM_BOND_UDEF_STEREO_COUNT>
0

> <PUBCHEM_ISOTOPIC_ATOM_COUNT>
0

> <PUBCHEM_COMPONENT_COUNT>
1

> <PUBCHEM_CACTVS_TAUTO_COUNT>
5

> <PUBCHEM_COORDINATE_TYPE>
1

> <PUBCHEM_BONDANNOTATIONS>
1  17  8

$$$$
42006409
  CDK     0101151218

 55 57  0  0  0  0  0  0  0  0999 V2000
    4.5853   -2.1335    0.0000 O   0  0  0  0  0  0  0  0  0  0  0  0
    5.3943   -6.7213    0.0000 O   0  0  0  0  0  0  0  0  0  0  0  0
    3.6622   -5.7213    0.0000 O   0  0  0  0  0  0  0  0  0  0  0  0
    7.1263   -5.7213    0.0000 O   0  0  0  0  0  0  0  0  0  0  0  0
    4.7132    0.5401    0.0000 O   0  0  0  0  0  0  0  0  0  0  0  0
    5.3457    4.0898    0.0000 O   0  0  0  0  0  0  0  0  0  0  0  0
    3.1309    1.2446    0.0000 O   0  0  0  0  0  0  0  0  0  0  0  0
    3.9444    3.0717    0.0000 N   0  0  0  0  0  0  0  0  0  0  0  0
    6.2033   -2.1335    0.0000 N   0  0  0  0  0  0  0  0  0  0  0  0
    5.8943   -1.1825    0.0000 N   0  0  0  0  0  0  0  0  0  0  0  0
    5.3943   -3.7213    0.0000 C   0  0  0  0  0  0  0  0  0  0  0  0
    5.3943   -5.7213    0.0000 C   0  0  0  0  0  0  0  0  0  0  0  0
    4.5283   -5.2213    0.0000 C   0  0  0  0  0  0  0  0  0  0  0  0
    6.2603   -5.2213    0.0000 C   0  0  0  0  0  0  0  0  0  0  0  0
    4.5283   -4.2213    0.0000 C   0  0  0  0  0  0  0  0  0  0  0  0
    6.2603   -4.2213    0.0000 C   0  0  0  0  0  0  0  0  0  0  0  0
    5.3943   -2.7213    0.0000 C   0  0  0  0  0  0  0  0  0  0  0  0
    3.7634    4.7942    0.0000 C   0  0  0  0  0  0  0  0  0  0  0  0
    4.8943   -1.1825    0.0000 C   0  0  0  0  0  0  0  0  0  0  0  0
    4.3065   -0.3734    0.0000 C   0  0  0  0  0  0  0  0  0  0  0  0
    2.5878    6.4123    0.0000 C   0  0  0  0  0  0  0  0  0  0  0  0
    4.5322    2.2627    0.0000 C   0  0  0  0  0  0  0  0  0  0  0  0
    4.1701    5.7078    0.0000 C   0  0  0  0  0  0  0  0  0  0  0  0
    2.7688    4.6897    0.0000 C   0  0  0  0  0  0  0  0  0  0  0  0
    4.3511    3.9852    0.0000 C   0  0  0  0  0  0  0  0  0  0  0  0
    3.5823    6.5168    0.0000 C   0  0  0  0  0  0  0  0  0  0  0  0
    2.1810    5.4987    0.0000 C   0  0  0  0  0  0  0  0  0  0  0  0
    4.1254    1.3491    0.0000 C   0  0  0  0  0  0  0  0  0  0  0  0
    2.0000    7.2213    0.0000 C   0  0  0  0  0  0  0  0  0  0  0  0
    4.5283   -7.2213    0.0000 C   0  0  0  0  0  0  0  0  0  0  0  0
    2.7962   -5.2213    0.0000 C   0  0  0  0  0  0  0  0  0  0  0  0
    7.9924   -5.2213    0.0000 C   0  0  0  0  0  0  0  0  0  0  0  0
    3.9913   -3.9113    0.0000 H   0  0  0  0  0  0  0  0  0  0  0  0
    6.7972   -3.9113    0.0000 H   0  0  0  0  0  0  0  0  0  0  0  0
    3.7925   -0.0267    0.0000 H   0  0  0  0  0  0  0  0  0  0  0  0
    3.8758   -0.8194    0.0000 H   0  0  0  0  0  0  0  0  0  0  0  0
    5.0462    1.9160    0.0000 H   0  0  0  0  0  0  0  0  0  0  0  0
    4.9629    2.7087    0.0000 H   0  0  0  0  0  0  0  0  0  0  0  0
    4.7867    5.7726    0.0000 H   0  0  0  0  0  0  0  0  0  0  0  0
    2.5167    4.1233    0.0000 H   0  0  0  0  0  0  0  0  0  0  0  0
    3.8345    7.0832    0.0000 H   0  0  0  0  0  0  0  0  0  0  0  0
    1.5644    5.4339    0.0000 H   0  0  0  0  0  0  0  0  0  0  0  0
    3.3278    3.0069    0.0000 H   0  0  0  0  0  0  0  0  0  0  0  0
    2.5016    7.5857    0.0000 H   0  0  0  0  0  0  0  0  0  0  0  0
    1.6356    7.7229    0.0000 H   0  0  0  0  0  0  0  0  0  0  0  0
    1.4984    6.8569    0.0000 H   0  0  0  0  0  0  0  0  0  0  0  0
    4.2183   -6.6844    0.0000 H   0  0  0  0  0  0  0  0  0  0  0  0
    3.9913   -7.5313    0.0000 H   0  0  0  0  0  0  0  0  0  0  0  0
    4.8383   -7.7582    0.0000 H   0  0  0  0  0  0  0  0  0  0  0  0
    3.1062   -4.6844    0.0000 H   0  0  0  0  0  0  0  0  0  0  0  0
    2.2593   -4.9113    0.0000 H   0  0  0  0  0  0  0  0  0  0  0  0
    2.4862   -5.7582    0.0000 H   0  0  0  0  0  0  0  0  0  0  0  0
    8.3024   -5.7582    0.0000 H   0  0  0  0  0  0  0  0  0  0  0  0
    8.5293   -4.9113    0.0000 H   0  0  0  0  0  0  0  0  0  0  0  0
    7.6824   -4.6844    0.0000 H   0  0  0  0  0  0  0  0  0  0  0  0
  1 17  1  0  0  0  0 
  1 19  1  0  0  0  0 
  2 12  1  0  0  0  0 
  2 30  1  0  0  0  0 
  3 13  1  0  0  0  0 
  3 31  1  0  0  0  0 
  4 14  1  0  0  0  0 
  4 32  1  0  0  0  0 
  5 20  1  0  0  0  0 
  5 28  1  0  0  0  0 
  6 25  2  0  0  0  0 
  7 28  2  0  0  0  0 
  8 22  1  0  0  0  0 
  8 25  1  0  0  0  0 
  8 43  1  0  0  0  0 
  9 10  1  0  0  0  0 
  9 17  2  0  0  0  0 
 10 19  2  0  0  0  0 
 11 15  2  0  0  0  0 
 11 16  1  0  0  0  0 
 11 17  1  0  0  0  0 
 12 13  2  0  0  0  0 
 12 14  1  0  0  0  0 
 13 15  1  0  0  0  0 
 14 16  2  0  0  0  0 
 15 33  1  0  0  0  0 
 16 34  1  0  0  0  0 
 18 23  2  0  0  0  0 
 18 24  1  0  0  0  0 
 18 25  1  0  0  0  0 
 19 20  1  0  0  0  0 
 20 35  1  0  0  0  0 
 20 36  1  0  0  0  0 
 21 26  2  0  0  0  0 
 21 27  1  0  0  0  0 
 21 29  1  0  0  0  0 
 22 28  1  0  0  0  0 
 22 37  1  0  0  0  0 
 22 38  1  0  0  0  0 
 23 26  1  0  0  0  0 
 23 39  1  0  0  0  0 
 24 27  2  0  0  0  0 
 24 40  1  0  0  0  0 
 26 41  1  0  0  0  0 
 27 42  1  0  0  0  0 
 29 44  1  0  0  0  0 
 29 45  1  0  0  0  0 
 29 46  1  0  0  0  0 
 30 47  1  0  0  0  0 
 30 48  1  0  0  0  0 
 30 49  1  0  0  0  0 
 31 50  1  0  0  0  0 
 31 51  1  0  0  0  0 
 31 52  1  0  0  0  0 
 32 53  1  0  0  0  0 
 32 54  1  0  0  0  0 
 32 55  1  0  0  0  0 
M  END
> <cdk:Title>
42006409

> <cdk:Remark>
null

> <PUBCHEM_COMPOUND_CID>
42006409

> <PUBCHEM_COMPOUND_CANONICALIZED>
1

> <PUBCHEM_CACTVS_COMPLEXITY>
600

> <PUBCHEM_CACTVS_HBOND_ACCEPTOR>
9

> <PUBCHEM_CACTVS_HBOND_DONOR>
1

> <PUBCHEM_CACTVS_ROTATABLE_BOND>
10

> <PUBCHEM_CACTVS_SUBSKEYS>
AAADceB7OAAAAAAAAAAAAAAAAAAAAWAAAAAwYAAAAAAAAAAB0AAAHgAYAAAADAThmgYyDoLABECqAiHyGAaSCAAsIAAaiKH+jNgPJ7KEtT+PMSplzhWaqYf6/DzOYAABCAAAQADAAAIQAACAAAAAAAAAAA==

> <PUBCHEM_IUPAC_OPENEYE_NAME>
[5-(3,4,5-trimethoxyphenyl)-1,3,4-oxadiazol-2-yl]methyl 2-[(4-methylbenzoyl)amino]acetate

> <PUBCHEM_IUPAC_CAS_NAME>
2-[[(4-methylphenyl)-oxomethyl]amino]acetic acid [5-(3,4,5-trimethoxyphenyl)-1,3,4-oxadiazol-2-yl]methyl ester

> <PUBCHEM_IUPAC_NAME>
[5-(3,4,5-trimethoxyphenyl)-1,3,4-oxadiazol-2-yl]methyl 2-[(4-methylbenzoyl)amino]acetate

> <PUBCHEM_IUPAC_SYSTEMATIC_NAME>
[5-(3,4,5-trimethoxyphenyl)-1,3,4-oxadiazol-2-yl]methyl 2-[(4-methylphenyl)carbonylamino]ethanoate

> <PUBCHEM_IUPAC_TRADITIONAL_NAME>
2-(p-toluoylamino)acetic acid [5-(3,4,5-trimethoxyphenyl)-1,3,4-oxadiazol-2-yl]methyl ester

> <PUBCHEM_IUPAC_INCHI>
InChI=1S/C22H23N3O7/c1-13-5-7-14(8-6-13)21(27)23-11-19(26)31-12-18-24-25-22(32-18)15-9-16(28-2)20(30-4)17(10-15)29-3/h5-10H,11-12H2,1-4H3,(H,23,27)

> <PUBCHEM_IUPAC_INCHIKEY>
JCQMUKDNUVQTPU-UHFFFAOYSA-N

> <PUBCHEM_XLOGP3_AA>
2.4

> <PUBCHEM_EXACT_MASS>
441.1536

> <PUBCHEM_MOLECULAR_FORMULA>
C22H23N3O7

> <PUBCHEM_MOLECULAR_WEIGHT>
441.43392

> <PUBCHEM_OPENEYE_CAN_SMILES>
CC1=CC=C(C=C1)C(=O)NCC(=O)OCC2=NN=C(O2)C3=CC(=C(C(=C3)OC)OC)OC

> <PUBCHEM_OPENEYE_ISO_SMILES>
CC1=CC=C(C=C1)C(=O)NCC(=O)OCC2=NN=C(O2)C3=CC(=C(C(=C3)OC)OC)OC

> <PUBCHEM_CACTVS_TPSA>
122

> <PUBCHEM_MONOISOTOPIC_WEIGHT>
441.1536

> <PUBCHEM_TOTAL_CHARGE>
0

> <PUBCHEM_HEAVY_ATOM_COUNT>
32

> <PUBCHEM_ATOM_DEF_STEREO_COUNT>
0

> <PUBCHEM_ATOM_UDEF_STEREO_COUNT>
0

> <PUBCHEM_BOND_DEF_STEREO_COUNT>
0

> <PUBCHEM_BOND_UDEF_STEREO_COUNT>
0

> <PUBCHEM_ISOTOPIC_ATOM_COUNT>
0

> <PUBCHEM_COMPONENT_COUNT>
1

> <PUBCHEM_CACTVS_TAUTO_COUNT>
5

> <PUBCHEM_COORDINATE_TYPE>
1

> <PUBCHEM_BONDANNOTATIONS>
1  17  8

$$$$
