
  CDK     0202151413

 13 13  0  0  0  0  0  0  0  0999 V2000
    3.7320    1.5020    0.0000 S   0  0  0  0  0  0  0  0  0  0  0  0
    4.7026    3.9965    0.0000 S   0  0  0  0  0  0  0  0  0  0  0  0
    4.7320    1.5020    0.0000 O   0  0  0  0  0  0  0  0  0  0  0  0
    2.7320    1.5020    0.0000 O   0  0  0  0  0  0  0  0  0  0  0  0
    3.7320    2.5020    0.0000 N   0  0  0  0  0  0  0  0  0  0  0  0
    3.7320    0.5020    0.0000 C   0  0  0  0  0  0  0  0  0  0  0  0
    2.8660    0.0020    0.0000 C   0  0  0  0  0  0  0  0  0  0  0  0
    4.5981    0.0020    0.0000 C   0  0  0  0  0  0  0  0  0  0  0  0
    3.7320   -1.4980    0.0000 C   0  0  0  0  0  0  0  0  0  0  0  0
    2.8660   -0.9980    0.0000 C   0  0  0  0  0  0  0  0  0  0  0  0
    4.5981   -0.9980    0.0000 C   0  0  0  0  0  0  0  0  0  0  0  0
    4.5981    3.0020    0.0000 C   0  0  0  0  0  0  0  0  0  0  0  0
    3.7320   -2.4980    0.0000 C   0  0  0  0  0  0  0  0  0  0  0  0
  1  3  1  0  0  0  0 
  1  4  1  0  0  0  0 
  1  5  1  0  0  0  0 
  1  6  1  0  0  0  0 
  2 12  1  0  0  0  0 
  5 12  1  0  0  0  0 
  6  7  1  0  0  0  0 
  6  8  1  0  0  0  0 
  7 10  1  0  0  0  0 
  8 11  1  0  0  0  0 
  9 10  1  0  0  0  0 
  9 11  1  0  0  0  0 
  9 13  1  0  0  0  0 
M  END
> <PUBCHEM_COMPOUND_CID>
29050647

$$$$
