61431783
  CDK     1229141544

 42 43  0  0  0  0  0  0  0  0999 V2000
    4.6551    4.5684    0.0000 O   0  0  0  0  0  0  0  0  0  0  0  0
    4.5981   -0.5194    0.0000 O   0  0  0  0  0  0  0  0  0  0  0  0
    4.5981    2.4806    0.0000 N   0  0  3  0  0  0  0  0  0  0  0  0
    2.8660   -0.5194    0.0000 N   0  0  0  0  0  0  0  0  0  0  0  0
    2.8660   -5.5194    0.0000 N   0  0  0  0  0  0  0  0  0  0  0  0
    5.4641    3.9806    0.0000 C   0  0  3  0  0  0  0  0  0  0  0  0
    6.2731    4.5684    0.0000 C   0  0  0  0  0  0  0  0  0  0  0  0
    5.4641    2.9806    0.0000 C   0  0  0  0  0  0  0  0  0  0  0  0
    5.9641    5.5194    0.0000 C   0  0  0  0  0  0  0  0  0  0  0  0
    4.9641    5.5194    0.0000 C   0  0  0  0  0  0  0  0  0  0  0  0
    4.5981    1.4806    0.0000 C   0  0  0  0  0  0  0  0  0  0  0  0
    3.7320    2.9806    0.0000 C   0  0  0  0  0  0  0  0  0  0  0  0
    3.7320    0.9806    0.0000 C   0  0  0  0  0  0  0  0  0  0  0  0
    3.7320   -0.0194    0.0000 C   0  0  0  0  0  0  0  0  0  0  0  0
    2.8660   -1.5194    0.0000 C   0  0  0  0  0  0  0  0  0  0  0  0
    2.0000   -2.0194    0.0000 C   0  0  0  0  0  0  0  0  0  0  0  0
    3.7320   -2.0194    0.0000 C   0  0  0  0  0  0  0  0  0  0  0  0
    2.0000   -3.0194    0.0000 C   0  0  0  0  0  0  0  0  0  0  0  0
    3.7320   -3.0194    0.0000 C   0  0  0  0  0  0  0  0  0  0  0  0
    2.8660   -3.5194    0.0000 C   0  0  0  0  0  0  0  0  0  0  0  0
    2.8660   -4.5194    0.0000 C   0  0  0  0  0  0  0  0  0  0  0  0
    4.9117    3.6991    0.0000 H   0  0  0  0  0  0  0  0  0  0  0  0
    6.5831    4.0314    0.0000 H   0  0  0  0  0  0  0  0  0  0  0  0
    6.8395    4.8205    0.0000 H   0  0  0  0  0  0  0  0  0  0  0  0
    5.6762    2.3980    0.0000 H   0  0  0  0  0  0  0  0  0  0  0  0
    6.0747    3.0882    0.0000 H   0  0  0  0  0  0  0  0  0  0  0  0
    6.5706    5.6483    0.0000 H   0  0  0  0  0  0  0  0  0  0  0  0
    5.8993    6.1360    0.0000 H   0  0  0  0  0  0  0  0  0  0  0  0
    5.0289    6.1360    0.0000 H   0  0  0  0  0  0  0  0  0  0  0  0
    4.3576    5.6483    0.0000 H   0  0  0  0  0  0  0  0  0  0  0  0
    4.8101    0.8980    0.0000 H   0  0  0  0  0  0  0  0  0  0  0  0
    5.2087    1.5882    0.0000 H   0  0  0  0  0  0  0  0  0  0  0  0
    4.0420    3.5175    0.0000 H   0  0  0  0  0  0  0  0  0  0  0  0
    3.1951    3.2906    0.0000 H   0  0  0  0  0  0  0  0  0  0  0  0
    3.4220    2.4436    0.0000 H   0  0  0  0  0  0  0  0  0  0  0  0
    3.5200    1.5632    0.0000 H   0  0  0  0  0  0  0  0  0  0  0  0
    3.1215    0.8729    0.0000 H   0  0  0  0  0  0  0  0  0  0  0  0
    2.3291   -0.2094    0.0000 H   0  0  0  0  0  0  0  0  0  0  0  0
    1.4631   -1.7094    0.0000 H   0  0  0  0  0  0  0  0  0  0  0  0
    4.2690   -1.7094    0.0000 H   0  0  0  0  0  0  0  0  0  0  0  0
    1.4631   -3.3294    0.0000 H   0  0  0  0  0  0  0  0  0  0  0  0
    4.2690   -3.3294    0.0000 H   0  0  0  0  0  0  0  0  0  0  0  0
  1  6  1  0  0  0  0 
  1 10  1  0  0  0  0 
  2 14  2  0  0  0  0 
  3  8  1  0  0  0  0 
  3 11  1  0  0  0  0 
  3 12  1  0  0  0  0 
  4 14  1  0  0  0  0 
  4 15  1  0  0  0  0 
  4 38  1  0  0  0  0 
  5 21  3  0  0  0  0 
  6  7  1  0  0  0  0 
  6  8  1  0  0  0  0 
  6 22  1  0  0  0  0 
  7  9  1  0  0  0  0 
  7 23  1  0  0  0  0 
  7 24  1  0  0  0  0 
  8 25  1  0  0  0  0 
  8 26  1  0  0  0  0 
  9 10  1  0  0  0  0 
  9 27  1  0  0  0  0 
  9 28  1  0  0  0  0 
 10 29  1  0  0  0  0 
 10 30  1  0  0  0  0 
 11 13  1  0  0  0  0 
 11 31  1  0  0  0  0 
 11 32  1  0  0  0  0 
 12 33  1  0  0  0  0 
 12 34  1  0  0  0  0 
 12 35  1  0  0  0  0 
 13 14  1  0  0  0  0 
 13 36  1  0  0  0  0 
 13 37  1  0  0  0  0 
 15 16  2  0  0  0  0 
 15 17  1  0  0  0  0 
 16 18  1  0  0  0  0 
 16 39  1  0  0  0  0 
 17 19  2  0  0  0  0 
 17 40  1  0  0  0  0 
 18 20  2  0  0  0  0 
 18 41  1  0  0  0  0 
 19 20  1  0  0  0  0 
 19 42  1  0  0  0  0 
 20 21  1  0  0  0  0 
M  END
> <cdk:Title>
61431783

> <cdk:Remark>
null

> <PUBCHEM_COMPOUND_CID>
61431783

> <PUBCHEM_COMPOUND_CANONICALIZED>
1

> <PUBCHEM_CACTVS_COMPLEXITY>
382

> <PUBCHEM_CACTVS_HBOND_ACCEPTOR>
4

> <PUBCHEM_CACTVS_HBOND_DONOR>
1

> <PUBCHEM_CACTVS_ROTATABLE_BOND>
6

> <PUBCHEM_CACTVS_SUBSKEYS>
AAADceB7MAAAAAAAAAAAAAAAAAAAASAAAAAwAAAAAAAAAAABAAAAHgAQAAAADBzhmAYywIPABACYBiVSUACiAAAhAgAIiAEIZIgKoCrA0ZGHIAhklADYyA+QkAIOCAAAAAAAAAAQAAAAAAAAAAAAAAAAAA==

> <PUBCHEM_IUPAC_OPENEYE_NAME>
N-(4-cyanophenyl)-3-[methyl(tetrahydrofuran-2-ylmethyl)amino]propanamide

> <PUBCHEM_IUPAC_CAS_NAME>
N-(4-cyanophenyl)-3-[methyl(2-oxolanylmethyl)amino]propanamide

> <PUBCHEM_IUPAC_NAME>
N-(4-cyanophenyl)-3-[methyl(oxolan-2-ylmethyl)amino]propanamide

> <PUBCHEM_IUPAC_SYSTEMATIC_NAME>
N-(4-cyanophenyl)-3-[methyl(oxolan-2-ylmethyl)amino]propanamide

> <PUBCHEM_IUPAC_TRADITIONAL_NAME>
N-(4-cyanophenyl)-3-[methyl(tetrahydrofurfuryl)amino]propionamide

> <PUBCHEM_IUPAC_INCHI>
InChI=1S/C16H21N3O2/c1-19(12-15-3-2-10-21-15)9-8-16(20)18-14-6-4-13(11-17)5-7-14/h4-7,15H,2-3,8-10,12H2,1H3,(H,18,20)

> <PUBCHEM_IUPAC_INCHIKEY>
ZWPNWWLAYQBYBB-UHFFFAOYSA-N

> <PUBCHEM_XLOGP3_AA>
1.2

> <PUBCHEM_EXACT_MASS>
287.163377

> <PUBCHEM_MOLECULAR_FORMULA>
C16H21N3O2

> <PUBCHEM_MOLECULAR_WEIGHT>
287.35684

> <PUBCHEM_OPENEYE_CAN_SMILES>
CN(CCC(=O)NC1=CC=C(C=C1)C#N)CC2CCCO2

> <PUBCHEM_OPENEYE_ISO_SMILES>
CN(CCC(=O)NC1=CC=C(C=C1)C#N)CC2CCCO2

> <PUBCHEM_CACTVS_TPSA>
65.4

> <PUBCHEM_MONOISOTOPIC_WEIGHT>
287.163377

> <PUBCHEM_TOTAL_CHARGE>
0

> <PUBCHEM_HEAVY_ATOM_COUNT>
21

> <PUBCHEM_ATOM_DEF_STEREO_COUNT>
0

> <PUBCHEM_ATOM_UDEF_STEREO_COUNT>
1

> <PUBCHEM_BOND_DEF_STEREO_COUNT>
0

> <PUBCHEM_BOND_UDEF_STEREO_COUNT>
0

> <PUBCHEM_ISOTOPIC_ATOM_COUNT>
0

> <PUBCHEM_COMPONENT_COUNT>
1

> <PUBCHEM_CACTVS_TAUTO_COUNT>
3

> <PUBCHEM_COORDINATE_TYPE>
1

> <PUBCHEM_BONDANNOTATIONS>
15  16  8

$$$$
