
  CDK     0202151413

 18 19  0  0  0  0  0  0  0  0999 V2000
    5.2647    1.9146    0.0000 S   0  0  0  0  0  0  0  0  0  0  0  0
    6.7541   -0.2014    0.0000 O   0  0  0  0  0  0  0  0  0  0  0  0
    6.3862    3.2994    0.0000 O   0  0  0  0  0  0  0  0  0  0  0  0
    6.8474    1.5782    0.0000 N   0  0  0  0  0  0  0  0  0  0  0  0
    2.8660   -0.0279    0.0000 N   0  0  0  0  0  0  0  0  0  0  0  0
    7.8419    1.6827    0.0000 C   0  0  0  0  0  0  0  0  0  0  0  0
    3.6750    0.5599    0.0000 C   0  0  0  0  0  0  0  0  0  0  0  0
    8.2486    2.5962    0.0000 C   0  0  0  0  0  0  0  0  0  0  0  0
    5.3692    0.9200    0.0000 C   0  0  0  0  0  0  0  0  0  0  0  0
    6.3474    0.7121    0.0000 C   0  0  0  0  0  0  0  0  0  0  0  0
    4.6261    0.2509    0.0000 C   0  0  0  0  0  0  0  0  0  0  0  0
    2.8660   -1.0278    0.0000 C   0  0  0  0  0  0  0  0  0  0  0  0
    3.3660    1.5110    0.0000 C   0  0  0  0  0  0  0  0  0  0  0  0
    2.0570    0.5599    0.0000 C   0  0  0  0  0  0  0  0  0  0  0  0
    6.1783    2.3213    0.0000 C   0  0  0  0  0  0  0  0  0  0  0  0
    2.3660    1.5110    0.0000 C   0  0  0  0  0  0  0  0  0  0  0  0
    2.0000   -1.5278    0.0000 C   0  0  0  0  0  0  0  0  0  0  0  0
    3.7320   -1.5278    0.0000 C   0  0  0  0  0  0  0  0  0  0  0  0
  1  9  1  0  0  0  0 
  1 15  1  0  0  0  0 
  2 10  1  0  0  0  0 
  3 15  1  0  0  0  0 
  4  6  1  0  0  0  0 
  4 10  1  0  0  0  0 
  4 15  1  0  0  0  0 
  5  7  1  0  0  0  0 
  5 12  1  0  0  0  0 
  5 14  1  0  0  0  0 
  6  8  1  0  0  0  0 
  7 11  1  0  0  0  0 
  7 13  1  0  0  0  0 
  9 10  1  0  0  0  0 
  9 11  1  0  0  0  0 
 12 17  1  0  0  0  0 
 12 18  1  0  0  0  0 
 13 16  1  0  0  0  0 
 14 16  1  0  0  0  0 
M  END
> <PUBCHEM_COMPOUND_CID>
17046933

$$$$
