
  CDK     0202151410

 24 26  0  0  0  0  0  0  0  0999 V2000
    5.9109    0.6624    0.0000 O   0  0  0  0  0  0  0  0  0  0  0  0
    4.1790    0.6824    0.0000 O   0  0  0  0  0  0  0  0  0  0  0  0
    4.4966   -2.7610    0.0000 O   0  0  0  0  0  0  0  0  0  0  0  0
    7.6593    0.6278    0.0000 O   0  0  0  0  0  0  0  0  0  0  0  0
    7.6593   -3.3722    0.0000 O   0  0  0  0  0  0  0  0  0  0  0  0
    9.4077    0.6624    0.0000 O   0  0  0  0  0  0  0  0  0  0  0  0
    9.4077   -3.4068    0.0000 O   0  0  0  0  0  0  0  0  0  0  0  0
    4.9933   -1.8930    0.0000 C   0  0  2  0  0  0  0  0  0  0  0  0
    4.9933   -0.8514    0.0000 C   0  0  0  0  0  0  0  0  0  0  0  0
    5.8994   -0.3376    0.0000 C   0  0  1  0  0  0  0  0  0  0  0  0
    5.8994   -2.4069    0.0000 C   0  0  0  0  0  0  0  0  0  0  0  0
    6.7933   -0.8722    0.0000 C   0  0  0  0  0  0  0  0  0  0  0  0
    6.7933   -1.8722    0.0000 C   0  0  0  0  0  0  0  0  0  0  0  0
    3.9933   -1.8969    0.0000 C   0  0  0  0  0  0  0  0  0  0  0  0
    5.0508    1.1724    0.0000 C   0  0  2  0  0  0  0  0  0  0  0  0
    5.0623    2.1723    0.0000 C   0  0  0  0  0  0  0  0  0  0  0  0
    7.6593   -0.3722    0.0000 C   0  0  0  0  0  0  0  0  0  0  0  0
    7.6593   -2.3722    0.0000 C   0  0  0  0  0  0  0  0  0  0  0  0
    8.5254   -0.8722    0.0000 C   0  0  0  0  0  0  0  0  0  0  0  0
    8.5254   -1.8722    0.0000 C   0  0  0  0  0  0  0  0  0  0  0  0
    9.4193   -0.3376    0.0000 C   0  0  0  0  0  0  0  0  0  0  0  0
    9.4193   -2.4069    0.0000 C   0  0  0  0  0  0  0  0  0  0  0  0
   10.3254   -0.8514    0.0000 C   0  0  0  0  0  0  0  0  0  0  0  0
   10.3254   -1.8930    0.0000 C   0  0  0  0  0  0  0  0  0  0  0  0
 10  1  1  6  0  0  0 
 15  1  1  6  0  0  0 
  2 15  1  0  0  0  0 
  8  3  1  6  0  0  0 
  4 17  1  0  0  0  0 
  5 18  1  0  0  0  0 
  6 21  1  0  0  0  0 
  7 22  1  0  0  0  0 
  8  9  1  0  0  0  0 
  8 11  1  0  0  0  0 
  8 14  1  0  0  0  0 
  9 10  1  0  0  0  0 
 10 12  1  0  0  0  0 
 11 13  1  0  0  0  0 
 12 13  1  0  0  0  0 
 12 17  1  0  0  0  0 
 13 18  1  0  0  0  0 
 15 16  1  0  0  0  0 
 17 19  1  0  0  0  0 
 18 20  1  0  0  0  0 
 19 20  1  0  0  0  0 
 19 21  1  0  0  0  0 
 20 22  1  0  0  0  0 
 21 23  1  0  0  0  0 
 22 24  1  0  0  0  0 
 23 24  1  0  0  0  0 
M  END
> <PUBCHEM_COMPOUND_CID>
70668172

$$$$
