
  CDK     0224152114

 22 24  0  0  0  0  0  0  0  0999 V2000
    8.0622    0.0000    0.0000 S   0  0  0  0  0  0  0  0  0  0  0  0
    8.0622    1.0000    0.0000 N   0  0  0  0  0  0  0  0  0  0  0  0
    5.4641   -1.5000    0.0000 N   0  0  0  0  0  0  0  0  0  0  0  0
    8.9282    1.5000    0.0000 C   0  0  0  0  0  0  0  0  0  0  0  0
   10.6603    2.5000    0.0000 C   0  0  0  0  0  0  0  0  0  0  0  0
    9.7942    1.0000    0.0000 C   0  0  0  0  0  0  0  0  0  0  0  0
    8.9282    2.5000    0.0000 C   0  0  0  0  0  0  0  0  0  0  0  0
   10.6603    1.5000    0.0000 C   0  0  0  0  0  0  0  0  0  0  0  0
    9.7942    3.0000    0.0000 C   0  0  0  0  0  0  0  0  0  0  0  0
    2.8660    0.0000    0.0000 C   0  0  0  0  0  0  0  0  0  0  0  0
    4.5981   -1.0000    0.0000 C   0  0  0  0  0  0  0  0  0  0  0  0
    2.8660   -1.0000    0.0000 C   0  0  0  0  0  0  0  0  0  0  0  0
    3.7320    0.5000    0.0000 C   0  0  0  0  0  0  0  0  0  0  0  0
    4.5981    0.0000    0.0000 C   0  0  0  0  0  0  0  0  0  0  0  0
    3.7320   -1.5000    0.0000 C   0  0  0  0  0  0  0  0  0  0  0  0
    8.0622   -1.0000    0.0000 C   0  0  0  0  0  0  0  0  0  0  0  0
    6.3301   -1.0000    0.0000 C   0  0  0  0  0  0  0  0  0  0  0  0
    7.1962   -1.5000    0.0000 C   0  0  0  0  0  0  0  0  0  0  0  0
    8.9282   -1.5000    0.0000 C   0  0  0  0  0  0  0  0  0  0  0  0
    7.1962   -2.5000    0.0000 C   0  0  0  0  0  0  0  0  0  0  0  0
    8.9282   -2.5000    0.0000 C   0  0  0  0  0  0  0  0  0  0  0  0
    8.0622   -3.0000    0.0000 C   0  0  0  0  0  0  0  0  0  0  0  0
  1  2  1  0  0  0  0 
  1 16  1  0  0  0  0 
  2  4  1  0  0  0  0 
  3 11  1  0  0  0  0 
  3 17  1  0  0  0  0 
  4  6  1  0  0  0  0 
  4  7  1  0  0  0  0 
  5  8  1  0  0  0  0 
  5  9  1  0  0  0  0 
  6  8  1  0  0  0  0 
  7  9  1  0  0  0  0 
 10 12  1  0  0  0  0 
 10 13  1  0  0  0  0 
 11 14  1  0  0  0  0 
 11 15  1  0  0  0  0 
 12 15  1  0  0  0  0 
 13 14  1  0  0  0  0 
 16 18  1  0  0  0  0 
 16 19  1  0  0  0  0 
 17 18  1  0  0  0  0 
 18 20  1  0  0  0  0 
 19 21  1  0  0  0  0 
 20 22  1  0  0  0  0 
 21 22  1  0  0  0  0 
M  END
> <PUBCHEM_COMPOUND_CID>
9930426

$$$$

  CDK     0224152114

 22 24  0  0  0  0  0  0  0  0999 V2000
   10.7263   -0.2604    0.0000 N   0  0  0  0  0  0  0  0  0  0  0  0
    6.3981    0.2563    0.0000 N   0  0  0  0  0  0  0  0  0  0  0  0
    5.4920    1.8118    0.0000 N   0  0  0  0  0  0  0  0  0  0  0  0
   11.5942    0.2362    0.0000 C   0  0  3  0  0  0  0  0  0  0  0  0
   12.4583   -0.2671    0.0000 C   0  0  0  0  0  0  0  0  0  0  0  0
   12.4544   -1.2671    0.0000 C   0  0  0  0  0  0  0  0  0  0  0  0
   13.3262    0.2296    0.0000 C   0  0  0  0  0  0  0  0  0  0  0  0
    8.9942   -0.2537    0.0000 C   0  0  0  0  0  0  0  0  0  0  0  0
   14.1865   -1.2738    0.0000 C   0  0  0  0  0  0  0  0  0  0  0  0
    9.8622    0.2429    0.0000 C   0  0  0  0  0  0  0  0  0  0  0  0
    8.1301    0.2496    0.0000 C   0  0  0  0  0  0  0  0  0  0  0  0
   13.3185   -1.7704    0.0000 C   0  0  0  0  0  0  0  0  0  0  0  0
   14.1903   -0.2738    0.0000 C   0  0  0  0  0  0  0  0  0  0  0  0
    7.2622   -0.2471    0.0000 C   0  0  0  0  0  0  0  0  0  0  0  0
    5.4920   -0.2576    0.0000 C   0  0  0  0  0  0  0  0  0  0  0  0
    4.5981    0.2771    0.0000 C   0  0  0  0  0  0  0  0  0  0  0  0
    6.3981    1.2979    0.0000 C   0  0  0  0  0  0  0  0  0  0  0  0
    4.5981    1.2771    0.0000 C   0  0  0  0  0  0  0  0  0  0  0  0
    3.7320   -0.2229    0.0000 C   0  0  0  0  0  0  0  0  0  0  0  0
    3.7320    1.7771    0.0000 C   0  0  0  0  0  0  0  0  0  0  0  0
    2.8660    0.2771    0.0000 C   0  0  0  0  0  0  0  0  0  0  0  0
    2.8660    1.2771    0.0000 C   0  0  0  0  0  0  0  0  0  0  0  0
  1  4  1  0  0  0  0 
  1 10  1  0  0  0  0 
  2 14  1  0  0  0  0 
  2 15  1  0  0  0  0 
  2 17  1  0  0  0  0 
  3 17  1  0  0  0  0 
  3 18  1  0  0  0  0 
  4  5  1  0  0  0  0 
  5  6  1  0  0  0  0 
  5  7  1  0  0  0  0 
  6 12  1  0  0  0  0 
  7 13  1  0  0  0  0 
  8 10  1  0  0  0  0 
  8 11  1  0  0  0  0 
  9 12  1  0  0  0  0 
  9 13  1  0  0  0  0 
 11 14  1  0  0  0  0 
 15 16  1  0  0  0  0 
 16 18  1  0  0  0  0 
 16 19  1  0  0  0  0 
 18 20  1  0  0  0  0 
 19 21  1  0  0  0  0 
 20 22  1  0  0  0  0 
 21 22  1  0  0  0  0 
M  END
> <PUBCHEM_COMPOUND_CID>
46420414

$$$$

  CDK     0224152114

 22 24  0  0  0  0  0  0  0  0999 V2000
   10.0109    2.8706    0.0000 O   0  0  0  0  0  0  0  0  0  0  0  0
    5.4641   -1.3318    0.0000 O   0  0  0  0  0  0  0  0  0  0  0  0
    8.0622    0.1682    0.0000 N   0  0  0  0  0  0  0  0  0  0  0  0
   10.5109    2.0046    0.0000 N   0  0  0  0  0  0  0  0  0  0  0  0
    8.9282    1.6682    0.0000 C   0  0  0  0  0  0  0  0  0  0  0  0
    8.0622    1.1682    0.0000 C   0  0  0  0  0  0  0  0  0  0  0  0
    9.0327    2.6627    0.0000 C   0  0  0  0  0  0  0  0  0  0  0  0
    9.8418    1.2614    0.0000 C   0  0  0  0  0  0  0  0  0  0  0  0
    7.1962   -1.3318    0.0000 C   0  0  0  0  0  0  0  0  0  0  0  0
    7.1962   -0.3318    0.0000 C   0  0  0  0  0  0  0  0  0  0  0  0
    6.3301   -1.8318    0.0000 C   0  0  0  0  0  0  0  0  0  0  0  0
    4.5981   -1.8318    0.0000 C   0  0  0  0  0  0  0  0  0  0  0  0
    8.0622   -1.8318    0.0000 C   0  0  0  0  0  0  0  0  0  0  0  0
    3.7320   -1.3318    0.0000 C   0  0  0  0  0  0  0  0  0  0  0  0
    6.3301   -2.8318    0.0000 C   0  0  0  0  0  0  0  0  0  0  0  0
    8.0622   -2.8318    0.0000 C   0  0  0  0  0  0  0  0  0  0  0  0
    7.1962   -3.3318    0.0000 C   0  0  0  0  0  0  0  0  0  0  0  0
    3.7320   -0.3318    0.0000 C   0  0  0  0  0  0  0  0  0  0  0  0
    2.8660   -1.8318    0.0000 C   0  0  0  0  0  0  0  0  0  0  0  0
    2.8660    0.1682    0.0000 C   0  0  0  0  0  0  0  0  0  0  0  0
    2.0000   -1.3318    0.0000 C   0  0  0  0  0  0  0  0  0  0  0  0
    2.0000   -0.3318    0.0000 C   0  0  0  0  0  0  0  0  0  0  0  0
  1  4  1  0  0  0  0 
  1  7  1  0  0  0  0 
  2 11  1  0  0  0  0 
  2 12  1  0  0  0  0 
  3  6  1  0  0  0  0 
  3 10  1  0  0  0  0 
  4  8  1  0  0  0  0 
  5  6  1  0  0  0  0 
  5  7  1  0  0  0  0 
  5  8  1  0  0  0  0 
  9 10  1  0  0  0  0 
  9 11  1  0  0  0  0 
  9 13  1  0  0  0  0 
 11 15  1  0  0  0  0 
 12 14  1  0  0  0  0 
 13 16  1  0  0  0  0 
 14 18  1  0  0  0  0 
 14 19  1  0  0  0  0 
 15 17  1  0  0  0  0 
 16 17  1  0  0  0  0 
 18 20  1  0  0  0  0 
 19 21  1  0  0  0  0 
 20 22  1  0  0  0  0 
 21 22  1  0  0  0  0 
M  END
> <PUBCHEM_COMPOUND_CID>
47862991

$$$$

  CDK     0224152114

 22 24  0  0  0  0  0  0  0  0999 V2000
    5.4641    2.0000    0.0000 N   0  0  0  0  0  0  0  0  0  0  0  0
    5.4641   -2.0000    0.0000 N   0  0  0  0  0  0  0  0  0  0  0  0
    5.4641    1.0000    0.0000 C   0  0  0  0  0  0  0  0  0  0  0  0
    5.4641   -1.0000    0.0000 C   0  0  0  0  0  0  0  0  0  0  0  0
    4.5981    0.5000    0.0000 C   0  0  0  0  0  0  0  0  0  0  0  0
    6.3301   -0.5000    0.0000 C   0  0  0  0  0  0  0  0  0  0  0  0
    6.3301    0.5000    0.0000 C   0  0  0  0  0  0  0  0  0  0  0  0
    4.5981   -0.5000    0.0000 C   0  0  0  0  0  0  0  0  0  0  0  0
    6.3301    2.5000    0.0000 C   0  0  0  0  0  0  0  0  0  0  0  0
    4.5981   -2.5000    0.0000 C   0  0  0  0  0  0  0  0  0  0  0  0
    6.3301    3.5000    0.0000 C   0  0  0  0  0  0  0  0  0  0  0  0
    4.5981   -3.5000    0.0000 C   0  0  0  0  0  0  0  0  0  0  0  0
    7.1962    4.0000    0.0000 C   0  0  0  0  0  0  0  0  0  0  0  0
    3.7320   -4.0000    0.0000 C   0  0  0  0  0  0  0  0  0  0  0  0
    5.4641    4.0000    0.0000 C   0  0  0  0  0  0  0  0  0  0  0  0
    5.4641   -4.0000    0.0000 C   0  0  0  0  0  0  0  0  0  0  0  0
    7.1962    5.0000    0.0000 C   0  0  0  0  0  0  0  0  0  0  0  0
    3.7320   -5.0000    0.0000 C   0  0  0  0  0  0  0  0  0  0  0  0
    5.4641    5.0000    0.0000 C   0  0  0  0  0  0  0  0  0  0  0  0
    5.4641   -5.0000    0.0000 C   0  0  0  0  0  0  0  0  0  0  0  0
    6.3301    5.5000    0.0000 C   0  0  0  0  0  0  0  0  0  0  0  0
    4.5981   -5.5000    0.0000 C   0  0  0  0  0  0  0  0  0  0  0  0
  1  3  1  0  0  0  0 
  1  9  1  0  0  0  0 
  2  4  1  0  0  0  0 
  2 10  1  0  0  0  0 
  3  5  1  0  0  0  0 
  3  7  1  0  0  0  0 
  4  6  1  0  0  0  0 
  4  8  1  0  0  0  0 
  5  8  1  0  0  0  0 
  6  7  1  0  0  0  0 
  9 11  1  0  0  0  0 
 10 12  1  0  0  0  0 
 11 13  1  0  0  0  0 
 11 15  1  0  0  0  0 
 12 14  1  0  0  0  0 
 12 16  1  0  0  0  0 
 13 17  1  0  0  0  0 
 14 18  1  0  0  0  0 
 15 19  1  0  0  0  0 
 16 20  1  0  0  0  0 
 17 21  1  0  0  0  0 
 18 22  1  0  0  0  0 
 19 21  1  0  0  0  0 
 20 22  1  0  0  0  0 
M  END
> <PUBCHEM_COMPOUND_CID>
19576084

$$$$

  CDK     0224152114

 22 24  0  0  0  0  0  0  0  0999 V2000
    4.5506    3.4920    0.0000 S   0  0  0  0  0  0  0  0  0  0  0  0
    8.1667    3.3933    0.0000 O   0  0  0  0  0  0  0  0  0  0  0  0
    6.3301    2.3988    0.0000 N   0  0  0  0  0  0  0  0  0  0  0  0
    8.0622    2.3988    0.0000 C   0  0  3  0  0  0  0  0  0  0  0  0
    8.9757    1.9920    0.0000 C   0  0  0  0  0  0  0  0  0  0  0  0
    9.6448    2.7352    0.0000 C   0  0  0  0  0  0  0  0  0  0  0  0
    7.1962    1.8988    0.0000 C   0  0  0  0  0  0  0  0  0  0  0  0
    9.1448    3.6012    0.0000 C   0  0  0  0  0  0  0  0  0  0  0  0
    6.3301    3.3988    0.0000 C   0  0  0  0  0  0  0  0  0  0  0  0
    5.4641    1.8988    0.0000 C   0  0  0  0  0  0  0  0  0  0  0  0
    5.4641    3.8988    0.0000 C   0  0  0  0  0  0  0  0  0  0  0  0
    5.4641    0.8988    0.0000 C   0  0  0  0  0  0  0  0  0  0  0  0
    5.3596    4.8933    0.0000 C   0  0  0  0  0  0  0  0  0  0  0  0
    4.5981    0.3988    0.0000 C   0  0  0  0  0  0  0  0  0  0  0  0
    4.3814    5.1012    0.0000 C   0  0  0  0  0  0  0  0  0  0  0  0
    3.8814    4.2352    0.0000 C   0  0  0  0  0  0  0  0  0  0  0  0
    4.5981   -0.6012    0.0000 C   0  0  0  0  0  0  0  0  0  0  0  0
    3.7320   -1.1012    0.0000 C   0  0  0  0  0  0  0  0  0  0  0  0
    5.4641   -1.1012    0.0000 C   0  0  0  0  0  0  0  0  0  0  0  0
    3.7320   -2.1012    0.0000 C   0  0  0  0  0  0  0  0  0  0  0  0
    4.5981   -2.6012    0.0000 C   0  0  0  0  0  0  0  0  0  0  0  0
    5.4641   -2.1012    0.0000 C   0  0  0  0  0  0  0  0  0  0  0  0
  1 11  1  0  0  0  0 
  1 16  1  0  0  0  0 
  2  4  1  0  0  0  0 
  2  8  1  0  0  0  0 
  3  7  1  0  0  0  0 
  3  9  1  0  0  0  0 
  3 10  1  0  0  0  0 
  4  5  1  0  0  0  0 
  4  7  1  0  0  0  0 
  5  6  1  0  0  0  0 
  6  8  1  0  0  0  0 
  9 11  1  0  0  0  0 
 10 12  1  0  0  0  0 
 11 13  1  0  0  0  0 
 12 14  1  0  0  0  0 
 13 15  1  0  0  0  0 
 14 17  1  0  0  0  0 
 15 16  1  0  0  0  0 
 17 18  1  0  0  0  0 
 17 19  1  0  0  0  0 
 18 20  1  0  0  0  0 
 19 22  1  0  0  0  0 
 20 21  1  0  0  0  0 
 21 22  1  0  0  0  0 
M  END
> <PUBCHEM_COMPOUND_CID>
18198587

$$$$

  CDK     0224152114

 22 24  0  0  0  0  0  0  0  0999 V2000
    5.4641    5.0600    0.0000 S   0  0  0  0  0  0  0  0  0  0  0  0
    6.3301    2.5600    0.0000 N   0  0  0  0  0  0  0  0  0  0  0  0
    5.4641   -1.9400    0.0000 C   0  0  0  0  0  0  0  0  0  0  0  0
    5.4641   -0.9400    0.0000 C   0  0  0  0  0  0  0  0  0  0  0  0
    6.3301   -2.4400    0.0000 C   0  0  0  0  0  0  0  0  0  0  0  0
    6.3301   -0.4400    0.0000 C   0  0  0  0  0  0  0  0  0  0  0  0
    7.1962   -1.9400    0.0000 C   0  0  0  0  0  0  0  0  0  0  0  0
    7.1962   -0.9400    0.0000 C   0  0  0  0  0  0  0  0  0  0  0  0
    6.3301    0.5600    0.0000 C   0  0  0  0  0  0  0  0  0  0  0  0
    7.1962    1.0600    0.0000 C   0  0  0  0  0  0  0  0  0  0  0  0
    7.1962    2.0600    0.0000 C   0  0  0  0  0  0  0  0  0  0  0  0
    6.3301    3.5600    0.0000 C   0  0  0  0  0  0  0  0  0  0  0  0
    5.4641    4.0600    0.0000 C   0  0  0  0  0  0  0  0  0  0  0  0
    8.0622    2.5600    0.0000 C   0  0  0  0  0  0  0  0  0  0  0  0
    7.1962    4.0600    0.0000 C   0  0  0  0  0  0  0  0  0  0  0  0
    8.0622    3.5600    0.0000 C   0  0  0  0  0  0  0  0  0  0  0  0
    4.5981    5.5600    0.0000 C   0  0  0  0  0  0  0  0  0  0  0  0
    2.8660    6.5600    0.0000 C   0  0  0  0  0  0  0  0  0  0  0  0
    4.5981    6.5600    0.0000 C   0  0  0  0  0  0  0  0  0  0  0  0
    3.7320    5.0600    0.0000 C   0  0  0  0  0  0  0  0  0  0  0  0
    3.7320    7.0600    0.0000 C   0  0  0  0  0  0  0  0  0  0  0  0
    2.8660    5.5600    0.0000 C   0  0  0  0  0  0  0  0  0  0  0  0
  1 13  1  0  0  0  0 
  1 17  1  0  0  0  0 
  2 11  1  0  0  0  0 
  2 12  1  0  0  0  0 
  3  4  1  0  0  0  0 
  3  5  1  0  0  0  0 
  4  6  1  0  0  0  0 
  5  7  1  0  0  0  0 
  6  8  1  0  0  0  0 
  6  9  1  0  0  0  0 
  7  8  1  0  0  0  0 
  9 10  1  0  0  0  0 
 10 11  1  0  0  0  0 
 11 14  1  0  0  0  0 
 12 13  1  0  0  0  0 
 12 15  1  0  0  0  0 
 14 16  1  0  0  0  0 
 15 16  1  0  0  0  0 
 17 19  1  0  0  0  0 
 17 20  1  0  0  0  0 
 18 21  1  0  0  0  0 
 18 22  1  0  0  0  0 
 19 21  1  0  0  0  0 
 20 22  1  0  0  0  0 
M  END
> <PUBCHEM_COMPOUND_CID>
19772271

$$$$

  CDK     0224152114

 22 24  0  0  0  0  0  0  0  0999 V2000
    2.8660    2.5000    0.0000 O   0  0  0  0  0  0  0  0  0  0  0  0
    4.5981   -0.5000    0.0000 N   0  0  0  0  0  0  0  0  0  0  0  0
    4.5981   -2.5000    0.0000 N   0  0  0  0  0  0  0  0  0  0  0  0
    5.4641   -4.0000    0.0000 N   0  0  0  0  0  0  0  0  0  0  0  0
    5.4641   -1.0000    0.0000 C   0  0  0  0  0  0  0  0  0  0  0  0
    3.7320   -1.0000    0.0000 C   0  0  0  0  0  0  0  0  0  0  0  0
    3.7320   -2.0000    0.0000 C   0  0  0  0  0  0  0  0  0  0  0  0
    5.4641   -2.0000    0.0000 C   0  0  0  0  0  0  0  0  0  0  0  0
    4.5981    0.5000    0.0000 C   0  0  0  0  0  0  0  0  0  0  0  0
    3.7320    1.0000    0.0000 C   0  0  1  0  0  0  0  0  0  0  0  0
    4.5981   -3.5000    0.0000 C   0  0  0  0  0  0  0  0  0  0  0  0
    3.7320    2.0000    0.0000 C   0  0  0  0  0  0  0  0  0  0  0  0
    3.7320   -4.0000    0.0000 C   0  0  0  0  0  0  0  0  0  0  0  0
    5.4641   -5.0000    0.0000 C   0  0  0  0  0  0  0  0  0  0  0  0
    3.7320   -5.0000    0.0000 C   0  0  0  0  0  0  0  0  0  0  0  0
    4.5981   -5.5000    0.0000 C   0  0  0  0  0  0  0  0  0  0  0  0
    2.8660    3.5000    0.0000 C   0  0  0  0  0  0  0  0  0  0  0  0
    3.7320    4.0000    0.0000 C   0  0  0  0  0  0  0  0  0  0  0  0
    2.0000    4.0000    0.0000 C   0  0  0  0  0  0  0  0  0  0  0  0
    3.7320    5.0000    0.0000 C   0  0  0  0  0  0  0  0  0  0  0  0
    2.0000    5.0000    0.0000 C   0  0  0  0  0  0  0  0  0  0  0  0
    2.8660    5.5000    0.0000 C   0  0  0  0  0  0  0  0  0  0  0  0
  1 12  1  0  0  0  0 
  1 17  1  0  0  0  0 
  2  5  1  0  0  0  0 
  2  6  1  0  0  0  0 
  2  9  1  0  0  0  0 
  3  7  1  0  0  0  0 
  3  8  1  0  0  0  0 
  3 11  1  0  0  0  0 
  4 11  1  0  0  0  0 
  4 14  1  0  0  0  0 
  5  8  1  0  0  0  0 
  6  7  1  0  0  0  0 
  9 10  1  0  0  0  0 
 10 12  1  0  0  0  0 
 11 13  1  0  0  0  0 
 13 15  1  0  0  0  0 
 14 16  1  0  0  0  0 
 15 16  1  0  0  0  0 
 17 18  1  0  0  0  0 
 17 19  1  0  0  0  0 
 18 20  1  0  0  0  0 
 19 21  1  0  0  0  0 
 20 22  1  0  0  0  0 
 21 22  1  0  0  0  0 
M  CHG  1   4   1
M  END
> <PUBCHEM_COMPOUND_CID>
34066282

$$$$

  CDK     0224152114

 22 24  0  0  0  0  0  0  0  0999 V2000
    9.6448    4.2500    0.0000 O   0  0  0  0  0  0  0  0  0  0  0  0
    5.3147   -1.2500    0.0000 N   0  0  0  0  0  0  0  0  0  0  0  0
    7.9128    3.2500    0.0000 N   0  0  3  0  0  0  0  0  0  0  0  0
    3.5827   -3.2500    0.0000 C   0  0  0  0  0  0  0  0  0  0  0  0
    2.6691   -2.8433    0.0000 C   0  0  0  0  0  0  0  0  0  0  0  0
    3.4782   -4.2445    0.0000 C   0  0  0  0  0  0  0  0  0  0  0  0
    2.5000   -4.4524    0.0000 C   0  0  0  0  0  0  0  0  0  0  0  0
    2.0000   -3.5864    0.0000 C   0  0  0  0  0  0  0  0  0  0  0  0
    4.4487   -2.7500    0.0000 C   0  0  3  0  0  0  0  0  0  0  0  0
    4.4487   -1.7500    0.0000 C   0  0  0  0  0  0  0  0  0  0  0  0
    8.7788    2.7500    0.0000 C   0  0  0  0  0  0  0  0  0  0  0  0
    9.6448    3.2500    0.0000 C   0  0  3  0  0  0  0  0  0  0  0  0
    7.9128    4.2500    0.0000 C   0  0  0  0  0  0  0  0  0  0  0  0
    5.3147   -0.2500    0.0000 C   0  0  0  0  0  0  0  0  0  0  0  0
    7.0468    2.7500    0.0000 C   0  0  0  0  0  0  0  0  0  0  0  0
    8.7788    4.7500    0.0000 C   0  0  0  0  0  0  0  0  0  0  0  0
    7.0468    1.7500    0.0000 C   0  0  0  0  0  0  0  0  0  0  0  0
    6.1808    0.2500    0.0000 C   0  0  0  0  0  0  0  0  0  0  0  0
    6.1808    1.2500    0.0000 C   0  0  0  0  0  0  0  0  0  0  0  0
    7.9128    1.2500    0.0000 C   0  0  0  0  0  0  0  0  0  0  0  0
    7.0468   -0.2500    0.0000 C   0  0  0  0  0  0  0  0  0  0  0  0
    7.9128    0.2500    0.0000 C   0  0  0  0  0  0  0  0  0  0  0  0
  1 12  1  0  0  0  0 
  1 16  1  0  0  0  0 
  2 10  1  0  0  0  0 
  2 14  1  0  0  0  0 
  3 11  1  0  0  0  0 
  3 13  1  0  0  0  0 
  3 15  1  0  0  0  0 
  4  5  1  0  0  0  0 
  4  6  1  0  0  0  0 
  4  9  1  0  0  0  0 
  5  8  1  0  0  0  0 
  6  7  1  0  0  0  0 
  7  8  1  0  0  0  0 
  9 10  1  0  0  0  0 
 11 12  1  0  0  0  0 
 13 16  1  0  0  0  0 
 14 18  1  0  0  0  0 
 15 17  1  0  0  0  0 
 17 19  1  0  0  0  0 
 17 20  1  0  0  0  0 
 18 19  1  0  0  0  0 
 18 21  1  0  0  0  0 
 20 22  1  0  0  0  0 
 21 22  1  0  0  0  0 
M  END
> <PUBCHEM_COMPOUND_CID>
47899785

$$$$

  CDK     0224152114

 22 24  0  0  0  0  0  0  0  0999 V2000
    4.7320   -1.2500    0.0000 S   0  0  0  0  0  0  0  0  0  0  0  0
    4.7320   -0.2500    0.0000 N   0  0  0  0  0  0  0  0  0  0  0  0
    5.5981    3.2500    0.0000 N   0  0  0  0  0  0  0  0  0  0  0  0
    4.7320    1.7500    0.0000 C   0  0  0  0  0  0  0  0  0  0  0  0
    3.8660    1.2500    0.0000 C   0  0  0  0  0  0  0  0  0  0  0  0
    5.5981    1.2500    0.0000 C   0  0  0  0  0  0  0  0  0  0  0  0
    3.8660    0.2500    0.0000 C   0  0  0  0  0  0  0  0  0  0  0  0
    5.5981    0.2500    0.0000 C   0  0  0  0  0  0  0  0  0  0  0  0
    4.7320    2.7500    0.0000 C   0  0  0  0  0  0  0  0  0  0  0  0
    4.7320   -2.2500    0.0000 C   0  0  0  0  0  0  0  0  0  0  0  0
    5.5981    4.2500    0.0000 C   0  0  0  0  0  0  0  0  0  0  0  0
    3.8660   -2.7500    0.0000 C   0  0  0  0  0  0  0  0  0  0  0  0
    5.5981   -2.7500    0.0000 C   0  0  0  0  0  0  0  0  0  0  0  0
    6.4641    4.7500    0.0000 C   0  0  0  0  0  0  0  0  0  0  0  0
    3.8660   -3.7500    0.0000 C   0  0  0  0  0  0  0  0  0  0  0  0
    5.5981   -3.7500    0.0000 C   0  0  0  0  0  0  0  0  0  0  0  0
    4.7320   -4.2500    0.0000 C   0  0  0  0  0  0  0  0  0  0  0  0
    7.3301    4.2500    0.0000 C   0  0  0  0  0  0  0  0  0  0  0  0
    6.4641    5.7500    0.0000 C   0  0  0  0  0  0  0  0  0  0  0  0
    8.1962    4.7500    0.0000 C   0  0  0  0  0  0  0  0  0  0  0  0
    7.3301    6.2500    0.0000 C   0  0  0  0  0  0  0  0  0  0  0  0
    8.1962    5.7500    0.0000 C   0  0  0  0  0  0  0  0  0  0  0  0
  1  2  1  0  0  0  0 
  1 10  1  0  0  0  0 
  2  7  1  0  0  0  0 
  2  8  1  0  0  0  0 
  3  9  1  0  0  0  0 
  3 11  1  0  0  0  0 
  4  5  1  0  0  0  0 
  4  6  1  0  0  0  0 
  4  9  1  0  0  0  0 
  5  7  1  0  0  0  0 
  6  8  1  0  0  0  0 
 10 12  1  0  0  0  0 
 10 13  1  0  0  0  0 
 11 14  1  0  0  0  0 
 12 15  1  0  0  0  0 
 13 16  1  0  0  0  0 
 14 18  1  0  0  0  0 
 14 19  1  0  0  0  0 
 15 17  1  0  0  0  0 
 16 17  1  0  0  0  0 
 18 20  1  0  0  0  0 
 19 21  1  0  0  0  0 
 20 22  1  0  0  0  0 
 21 22  1  0  0  0  0 
M  END
> <PUBCHEM_COMPOUND_CID>
32667412

$$$$
