
  CDK     0224152114

 21 24  0  0  0  0  0  0  0  0999 V2000
    4.5390   -0.8799    0.0000 N   0  0  0  0  0  0  0  0  0  0  0  0
    3.6730   -2.3799    0.0000 C   0  0  0  0  0  0  0  0  0  0  0  0
    2.9819   -4.2633    0.0000 C   0  0  0  0  0  0  0  0  0  0  0  0
    2.8368   -3.8282    0.0000 C   0  0  0  0  0  0  0  0  0  0  0  0
    4.5092   -3.8282    0.0000 C   0  0  0  0  0  0  0  0  0  0  0  0
    4.5092   -2.8627    0.0000 C   0  0  0  0  0  0  0  0  0  0  0  0
    2.8368   -2.8627    0.0000 C   0  0  0  0  0  0  0  0  0  0  0  0
    2.9819   -3.2180    0.0000 C   0  0  0  0  0  0  0  0  0  0  0  0
    3.6730   -4.1310    0.0000 C   0  0  0  0  0  0  0  0  0  0  0  0
    3.8876   -4.7401    0.0000 C   0  0  0  0  0  0  0  0  0  0  0  0
    2.0000   -4.3110    0.0000 C   0  0  0  0  0  0  0  0  0  0  0  0
    3.6730   -1.3799    0.0000 C   0  0  3  0  0  0  0  0  0  0  0  0
    4.5390    0.1201    0.0000 C   0  0  0  0  0  0  0  0  0  0  0  0
    5.4050    0.6201    0.0000 C   0  0  0  0  0  0  0  0  0  0  0  0
    5.4050    1.6201    0.0000 C   0  0  0  0  0  0  0  0  0  0  0  0
    6.2711    2.1201    0.0000 C   0  0  0  0  0  0  0  0  0  0  0  0
    7.1371    1.6201    0.0000 C   0  0  0  0  0  0  0  0  0  0  0  0
    6.2711    3.1201    0.0000 C   0  0  0  0  0  0  0  0  0  0  0  0
    8.0031    2.1201    0.0000 C   0  0  0  0  0  0  0  0  0  0  0  0
    7.1371    3.6201    0.0000 C   0  0  0  0  0  0  0  0  0  0  0  0
    8.0031    3.1201    0.0000 C   0  0  0  0  0  0  0  0  0  0  0  0
  1 12  1  0  0  0  0 
  1 13  1  0  0  0  0 
  2  6  1  0  0  0  0 
  2  7  1  0  0  0  0 
  2  8  1  0  0  0  0 
  2 12  1  0  0  0  0 
  3  8  1  0  0  0  0 
  3 10  1  0  0  0  0 
  3 11  1  0  0  0  0 
  4  7  1  0  0  0  0 
  4  9  1  0  0  0  0 
  4 11  1  0  0  0  0 
  5  6  1  0  0  0  0 
  5  9  1  0  0  0  0 
  5 10  1  0  0  0  0 
 13 14  1  0  0  0  0 
 14 15  1  0  0  0  0 
 15 16  1  0  0  0  0 
 16 17  1  0  0  0  0 
 16 18  1  0  0  0  0 
 17 19  1  0  0  0  0 
 18 20  1  0  0  0  0 
 19 21  1  0  0  0  0 
 20 21  1  0  0  0  0 
M  END
> <PUBCHEM_COMPOUND_CID>
45841961

$$$$
