32850434
  CDK     0202151413

 60 61  0  0  0  0  0  0  0  0999 V2000
    8.0622   -6.0000    0.0000 Cl  0  0  0  0  0  0  0  0  0  0  0  0
    6.3301    0.0000    0.0000 O   0  0  0  0  0  0  0  0  0  0  0  0
    4.5981    1.0000    0.0000 O   0  0  0  0  0  0  0  0  0  0  0  0
    8.0622    0.0000    0.0000 O   0  0  0  0  0  0  0  0  0  0  0  0
    9.7942   -3.0000    0.0000 O   0  0  0  0  0  0  0  0  0  0  0  0
    5.4641    2.5000    0.0000 N   0  0  0  0  0  0  0  0  0  0  0  0
    8.9282   -1.5000    0.0000 N   0  0  0  0  0  0  0  0  0  0  0  0
    3.7321    2.5000    0.0000 C   0  0  0  0  0  0  0  0  0  0  0  0
    4.5981    3.0000    0.0000 C   0  0  1  0  0  0  0  0  0  0  0  0
    2.8660    3.0000    0.0000 C   0  0  0  0  0  0  0  0  0  0  0  0
    4.5981    4.0000    0.0000 C   0  0  0  0  0  0  0  0  0  0  0  0
    2.0000    2.5000    0.0000 C   0  0  0  0  0  0  0  0  0  0  0  0
    2.8660    4.0000    0.0000 C   0  0  0  0  0  0  0  0  0  0  0  0
    3.7321    4.5000    0.0000 C   0  0  0  0  0  0  0  0  0  0  0  0
    5.4641    4.5000    0.0000 C   0  0  0  0  0  0  0  0  0  0  0  0
    5.4641    1.5000    0.0000 C   0  0  0  0  0  0  0  0  0  0  0  0
    8.0622   -2.0000    0.0000 C   0  0  1  0  0  0  0  0  0  0  0  0
    7.1962   -1.5000    0.0000 C   0  0  0  0  0  0  0  0  0  0  0  0
    6.3301    1.0000    0.0000 C   0  0  0  0  0  0  0  0  0  0  0  0
    8.0622   -3.0000    0.0000 C   0  0  0  0  0  0  0  0  0  0  0  0
    3.7321    5.5000    0.0000 C   0  0  0  0  0  0  0  0  0  0  0  0
    5.4641    5.5000    0.0000 C   0  0  0  0  0  0  0  0  0  0  0  0
    4.5981    6.0000    0.0000 C   0  0  0  0  0  0  0  0  0  0  0  0
    7.1962   -0.5000    0.0000 C   0  0  0  0  0  0  0  0  0  0  0  0
    7.1962   -3.5000    0.0000 C   0  0  0  0  0  0  0  0  0  0  0  0
    8.9282   -3.5000    0.0000 C   0  0  0  0  0  0  0  0  0  0  0  0
    9.7942   -2.0000    0.0000 C   0  0  0  0  0  0  0  0  0  0  0  0
    7.1962   -4.5000    0.0000 C   0  0  0  0  0  0  0  0  0  0  0  0
    8.9282   -4.5000    0.0000 C   0  0  0  0  0  0  0  0  0  0  0  0
    8.0622   -5.0000    0.0000 C   0  0  0  0  0  0  0  0  0  0  0  0
   10.6603   -1.5000    0.0000 C   0  0  0  0  0  0  0  0  0  0  0  0
    3.3335    2.0250    0.0000 H   0  0  0  0  0  0  0  0  0  0  0  0
    4.1306    2.0250    0.0000 H   0  0  0  0  0  0  0  0  0  0  0  0
    4.5981    2.3800    0.0000 H   0  0  0  0  0  0  0  0  0  0  0  0
    2.8660    2.3800    0.0000 H   0  0  0  0  0  0  0  0  0  0  0  0
    1.6900    3.0369    0.0000 H   0  0  0  0  0  0  0  0  0  0  0  0
    1.4631    2.1900    0.0000 H   0  0  0  0  0  0  0  0  0  0  0  0
    2.3100    1.9631    0.0000 H   0  0  0  0  0  0  0  0  0  0  0  0
    3.4860    4.0000    0.0000 H   0  0  0  0  0  0  0  0  0  0  0  0
    2.8660    4.6200    0.0000 H   0  0  0  0  0  0  0  0  0  0  0  0
    2.2460    4.0000    0.0000 H   0  0  0  0  0  0  0  0  0  0  0  0
    6.0010    2.8100    0.0000 H   0  0  0  0  0  0  0  0  0  0  0  0
    3.1951    4.1900    0.0000 H   0  0  0  0  0  0  0  0  0  0  0  0
    6.0010    4.1900    0.0000 H   0  0  0  0  0  0  0  0  0  0  0  0
    8.0622   -1.3800    0.0000 H   0  0  0  0  0  0  0  0  0  0  0  0
    6.5856   -1.3923    0.0000 H   0  0  0  0  0  0  0  0  0  0  0  0
    6.9841   -2.0826    0.0000 H   0  0  0  0  0  0  0  0  0  0  0  0
    6.9407    0.8923    0.0000 H   0  0  0  0  0  0  0  0  0  0  0  0
    6.5422    1.5826    0.0000 H   0  0  0  0  0  0  0  0  0  0  0  0
    3.1951    5.8100    0.0000 H   0  0  0  0  0  0  0  0  0  0  0  0
    6.0010    5.8100    0.0000 H   0  0  0  0  0  0  0  0  0  0  0  0
    4.5981    6.6200    0.0000 H   0  0  0  0  0  0  0  0  0  0  0  0
    8.9282   -0.8800    0.0000 H   0  0  0  0  0  0  0  0  0  0  0  0
    6.6592   -3.1900    0.0000 H   0  0  0  0  0  0  0  0  0  0  0  0
    9.4651   -3.1900    0.0000 H   0  0  0  0  0  0  0  0  0  0  0  0
    6.6592   -4.8100    0.0000 H   0  0  0  0  0  0  0  0  0  0  0  0
    9.4651   -4.8100    0.0000 H   0  0  0  0  0  0  0  0  0  0  0  0
   10.9703   -2.0369    0.0000 H   0  0  0  0  0  0  0  0  0  0  0  0
   11.1972   -1.1900    0.0000 H   0  0  0  0  0  0  0  0  0  0  0  0
   10.3503   -0.9631    0.0000 H   0  0  0  0  0  0  0  0  0  0  0  0
  1 30  1  0  0  0  0 
  2 19  1  0  0  0  0 
  2 24  1  0  0  0  0 
  3 16  2  0  0  0  0 
  4 24  2  0  0  0  0 
  5 27  2  0  0  0  0 
  9  6  1  1  0  0  0 
  6 16  1  0  0  0  0 
  6 42  1  0  0  0  0 
 17  7  1  6  0  0  0 
  7 27  1  0  0  0  0 
  7 53  1  0  0  0  0 
  8  9  1  0  0  0  0 
  8 10  1  0  0  0  0 
  8 32  1  0  0  0  0 
  8 33  1  0  0  0  0 
  9 11  1  0  0  0  0 
  9 34  1  0  0  0  0 
 10 12  1  0  0  0  0 
 10 13  1  0  0  0  0 
 10 35  1  0  0  0  0 
 11 14  2  0  0  0  0 
 11 15  1  0  0  0  0 
 12 36  1  0  0  0  0 
 12 37  1  0  0  0  0 
 12 38  1  0  0  0  0 
 13 39  1  0  0  0  0 
 13 40  1  0  0  0  0 
 13 41  1  0  0  0  0 
 14 21  1  0  0  0  0 
 14 43  1  0  0  0  0 
 15 22  2  0  0  0  0 
 15 44  1  0  0  0  0 
 16 19  1  0  0  0  0 
 17 18  1  0  0  0  0 
 17 20  1  0  0  0  0 
 17 45  1  0  0  0  0 
 18 24  1  0  0  0  0 
 18 46  1  0  0  0  0 
 18 47  1  0  0  0  0 
 19 48  1  0  0  0  0 
 19 49  1  0  0  0  0 
 20 25  2  0  0  0  0 
 20 26  1  0  0  0  0 
 21 23  2  0  0  0  0 
 21 50  1  0  0  0  0 
 22 23  1  0  0  0  0 
 22 51  1  0  0  0  0 
 23 52  1  0  0  0  0 
 25 28  1  0  0  0  0 
 25 54  1  0  0  0  0 
 26 29  2  0  0  0  0 
 26 55  1  0  0  0  0 
 27 31  1  0  0  0  0 
 28 30  2  0  0  0  0 
 28 56  1  0  0  0  0 
 29 30  1  0  0  0  0 
 29 57  1  0  0  0  0 
 31 58  1  0  0  0  0 
 31 59  1  0  0  0  0 
 31 60  1  0  0  0  0 
M  END
> <cdk:Title>
32850434

> <cdk:Remark>
null

> <PUBCHEM_COMPOUND_CID>
32850434

> <PUBCHEM_COMPOUND_CANONICALIZED>
1

> <PUBCHEM_CACTVS_COMPLEXITY>
584

> <PUBCHEM_CACTVS_HBOND_ACCEPTOR>
4

> <PUBCHEM_CACTVS_HBOND_DONOR>
2

> <PUBCHEM_CACTVS_ROTATABLE_BOND>
11

> <PUBCHEM_CACTVS_SUBSKEYS>
AAADceB7OAAEAAAAAAAAAAAAAAAAAAAAAAAwYAAAAAAAAAABQAAAHgIQAAAADSrhmCYyCILABACIAiHSGAKCAAAgBQAIiIFIBogKIDqBkxWHIAhmlgCYiAeYyOCOBAAAAAAAAAAIAAAAAAAAAAAAAAAAAA==

> <PUBCHEM_IUPAC_OPENEYE_NAME>
[2-[[(1S)-3-methyl-1-phenyl-butyl]amino]-2-oxo-ethyl] (3S)-3-acetamido-3-(4-chlorophenyl)propanoate

> <PUBCHEM_IUPAC_CAS_NAME>
(3S)-3-acetamido-3-(4-chlorophenyl)propanoic acid [2-[[(1S)-3-methyl-1-phenylbutyl]amino]-2-oxoethyl] ester

> <PUBCHEM_IUPAC_NAME>
[2-[[(1S)-3-methyl-1-phenylbutyl]amino]-2-oxoethyl] (3S)-3-acetamido-3-(4-chlorophenyl)propanoate

> <PUBCHEM_IUPAC_SYSTEMATIC_NAME>
[2-[[(1S)-3-methyl-1-phenyl-butyl]amino]-2-oxidanylidene-ethyl] (3S)-3-acetamido-3-(4-chlorophenyl)propanoate

> <PUBCHEM_IUPAC_TRADITIONAL_NAME>
(3S)-3-acetamido-3-(4-chlorophenyl)propionic acid [2-keto-2-[[(1S)-3-methyl-1-phenyl-butyl]amino]ethyl] ester

> <PUBCHEM_IUPAC_INCHI>
InChI=1S/C24H29ClN2O4/c1-16(2)13-21(18-7-5-4-6-8-18)27-23(29)15-31-24(30)14-22(26-17(3)28)19-9-11-20(25)12-10-19/h4-12,16,21-22H,13-15H2,1-3H3,(H,26,28)(H,27,29)/t21-,22-/m0/s1

> <PUBCHEM_IUPAC_INCHIKEY>
NCCCMMWKUKUFGJ-VXKWHMMOSA-N

> <PUBCHEM_XLOGP3_AA>
4.1

> <PUBCHEM_EXACT_MASS>
444.181585

> <PUBCHEM_MOLECULAR_FORMULA>
C24H29ClN2O4

> <PUBCHEM_MOLECULAR_WEIGHT>
444.95106

> <PUBCHEM_OPENEYE_CAN_SMILES>
CC(C)CC(C1=CC=CC=C1)NC(=O)COC(=O)CC(C2=CC=C(C=C2)Cl)NC(=O)C

> <PUBCHEM_OPENEYE_ISO_SMILES>
CC(C)C[C@@H](C1=CC=CC=C1)NC(=O)COC(=O)C[C@@H](C2=CC=C(C=C2)Cl)NC(=O)C

> <PUBCHEM_CACTVS_TPSA>
84.5

> <PUBCHEM_MONOISOTOPIC_WEIGHT>
444.181585

> <PUBCHEM_TOTAL_CHARGE>
0

> <PUBCHEM_HEAVY_ATOM_COUNT>
31

> <PUBCHEM_ATOM_DEF_STEREO_COUNT>
2

> <PUBCHEM_ATOM_UDEF_STEREO_COUNT>
0

> <PUBCHEM_BOND_DEF_STEREO_COUNT>
0

> <PUBCHEM_BOND_UDEF_STEREO_COUNT>
0

> <PUBCHEM_ISOTOPIC_ATOM_COUNT>
0

> <PUBCHEM_COMPONENT_COUNT>
1

> <PUBCHEM_CACTVS_TAUTO_COUNT>
4

> <PUBCHEM_COORDINATE_TYPE>
1

> <PUBCHEM_BONDANNOTATIONS>
11  14  8

$$$$
