16403572
  CDK     0104151102

 63 67  0  0  0  0  0  0  0  0999 V2000
    2.5357   -3.6598    0.0000 O   0  0  0  0  0  0  0  0  0  0  0  0
    8.1607    3.0870    0.0000 O   0  0  0  0  0  0  0  0  0  0  0  0
    9.1857    0.6478    0.0000 N   0  0  0  0  0  0  0  0  0  0  0  0
    8.5179    1.3921    0.0000 N   0  0  0  0  0  0  0  0  0  0  0  0
   11.7640    2.9613    0.0000 N   0  0  0  0  0  0  0  0  0  0  0  0
    6.1968   -1.6074    0.0000 C   0  0  1  0  0  0  0  0  0  0  0  0
    7.0628   -2.1074    0.0000 C   0  0  2  0  0  0  0  0  0  0  0  0
    7.9288   -1.6074    0.0000 C   0  0  1  0  0  0  0  0  0  0  0  0
    7.9288   -0.6074    0.0000 C   0  0  2  0  0  0  0  0  0  0  0  0
    5.2868   -2.1143    0.0000 C   0  0  2  0  0  0  0  0  0  0  0  0
    6.1968   -0.6074    0.0000 C   0  0  0  0  0  0  0  0  0  0  0  0
    7.0628   -0.1074    0.0000 C   0  0  0  0  0  0  0  0  0  0  0  0
    8.8750   -1.9122    0.0000 C   0  0  0  0  0  0  0  0  0  0  0  0
    7.0789   -3.1489    0.0000 C   0  0  0  0  0  0  0  0  0  0  0  0
    5.2787   -3.1559    0.0000 C   0  0  0  0  0  0  0  0  0  0  0  0
    8.8750   -0.3027    0.0000 C   0  0  0  0  0  0  0  0  0  0  0  0
    4.3599   -1.5502    0.0000 C   0  0  0  0  0  0  0  0  0  0  0  0
    9.4586   -1.1074    0.0000 C   0  0  0  0  0  0  0  0  0  0  0  0
    7.9288    0.3926    0.0000 C   0  0  0  0  0  0  0  0  0  0  0  0
    6.1808   -3.6767    0.0000 C   0  0  0  0  0  0  0  0  0  0  0  0
    5.2945   -1.1143    0.0000 C   0  0  0  0  0  0  0  0  0  0  0  0
    4.3433   -3.7056    0.0000 C   0  0  0  0  0  0  0  0  0  0  0  0
    3.4120   -2.0781    0.0000 C   0  0  0  0  0  0  0  0  0  0  0  0
    3.4037   -3.1631    0.0000 C   0  0  2  0  0  0  0  0  0  0  0  0
    8.8285    2.3426    0.0000 C   0  0  0  0  0  0  0  0  0  0  0  0
    9.8070    2.5489    0.0000 C   0  0  0  0  0  0  0  0  0  0  0  0
   10.1177    3.4994    0.0000 C   0  0  0  0  0  0  0  0  0  0  0  0
   10.4749    1.8046    0.0000 C   0  0  0  0  0  0  0  0  0  0  0  0
   11.0962    3.7056    0.0000 C   0  0  0  0  0  0  0  0  0  0  0  0
   11.4534    2.0108    0.0000 C   0  0  0  0  0  0  0  0  0  0  0  0
    6.9329   -1.1824    0.0000 H   0  0  0  0  0  0  0  0  0  0  0  0
    7.8022   -2.5267    0.0000 H   0  0  0  0  0  0  0  0  0  0  0  0
    8.0188   -2.4527    0.0000 H   0  0  0  0  0  0  0  0  0  0  0  0
    5.9847   -0.0248    0.0000 H   0  0  0  0  0  0  0  0  0  0  0  0
    5.5862   -0.7151    0.0000 H   0  0  0  0  0  0  0  0  0  0  0  0
    7.4613    0.3675    0.0000 H   0  0  0  0  0  0  0  0  0  0  0  0
    6.6643    0.3675    0.0000 H   0  0  0  0  0  0  0  0  0  0  0  0
    8.6240   -2.4791    0.0000 H   0  0  0  0  0  0  0  0  0  0  0  0
    9.4124   -2.2214    0.0000 H   0  0  0  0  0  0  0  0  0  0  0  0
    7.2969   -3.7293    0.0000 H   0  0  0  0  0  0  0  0  0  0  0  0
    7.6880   -3.0334    0.0000 H   0  0  0  0  0  0  0  0  0  0  0  0
    4.7681   -1.0835    0.0000 H   0  0  0  0  0  0  0  0  0  0  0  0
    3.9700   -1.0682    0.0000 H   0  0  0  0  0  0  0  0  0  0  0  0
    9.9195   -1.5222    0.0000 H   0  0  0  0  0  0  0  0  0  0  0  0
    9.9195   -0.6927    0.0000 H   0  0  0  0  0  0  0  0  0  0  0  0
    8.5488    0.3926    0.0000 H   0  0  0  0  0  0  0  0  0  0  0  0
    7.9288    1.0126    0.0000 H   0  0  0  0  0  0  0  0  0  0  0  0
    7.3088    0.3926    0.0000 H   0  0  0  0  0  0  0  0  0  0  0  0
    6.1832   -4.2967    0.0000 H   0  0  0  0  0  0  0  0  0  0  0  0
    5.9145   -1.1191    0.0000 H   0  0  0  0  0  0  0  0  0  0  0  0
    5.2993   -0.4943    0.0000 H   0  0  0  0  0  0  0  0  0  0  0  0
    4.6745   -1.1095    0.0000 H   0  0  0  0  0  0  0  0  0  0  0  0
    3.9460   -4.1816    0.0000 H   0  0  0  0  0  0  0  0  0  0  0  0
    4.7443   -4.1785    0.0000 H   0  0  0  0  0  0  0  0  0  0  0  0
    3.2075   -1.4929    0.0000 H   0  0  0  0  0  0  0  0  0  0  0  0
    2.8004   -2.1795    0.0000 H   0  0  0  0  0  0  0  0  0  0  0  0
    3.4025   -3.7831    0.0000 H   0  0  0  0  0  0  0  0  0  0  0  0
    2.0000   -3.3477    0.0000 H   0  0  0  0  0  0  0  0  0  0  0  0
    7.9112    1.2643    0.0000 H   0  0  0  0  0  0  0  0  0  0  0  0
    9.7036    3.9608    0.0000 H   0  0  0  0  0  0  0  0  0  0  0  0
   10.2823    1.2152    0.0000 H   0  0  0  0  0  0  0  0  0  0  0  0
   11.2888    4.2949    0.0000 H   0  0  0  0  0  0  0  0  0  0  0  0
   11.8674    1.5493    0.0000 H   0  0  0  0  0  0  0  0  0  0  0  0
 24  1  1  1  0  0  0 
  1 58  1  0  0  0  0 
  2 25  2  0  0  0  0 
  3  4  1  0  0  0  0 
  3 16  2  0  0  0  0 
  4 25  1  0  0  0  0 
  4 59  1  0  0  0  0 
  5 29  2  0  0  0  0 
  5 30  1  0  0  0  0 
  6  7  1  0  0  0  0 
  6 10  1  0  0  0  0 
  6 11  1  0  0  0  0 
  6 31  1  6  0  0  0 
  7  8  1  0  0  0  0 
  7 14  1  0  0  0  0 
  7 32  1  1  0  0  0 
  8  9  1  0  0  0  0 
  8 13  1  0  0  0  0 
  8 33  1  6  0  0  0 
  9 12  1  0  0  0  0 
  9 16  1  0  0  0  0 
  9 19  1  1  0  0  0 
 10 15  1  0  0  0  0 
 10 17  1  0  0  0  0 
 10 21  1  1  0  0  0 
 11 12  1  0  0  0  0 
 11 34  1  0  0  0  0 
 11 35  1  0  0  0  0 
 12 36  1  0  0  0  0 
 12 37  1  0  0  0  0 
 13 18  1  0  0  0  0 
 13 38  1  0  0  0  0 
 13 39  1  0  0  0  0 
 14 20  1  0  0  0  0 
 14 40  1  0  0  0  0 
 14 41  1  0  0  0  0 
 15 20  2  0  0  0  0 
 15 22  1  0  0  0  0 
 16 18  1  0  0  0  0 
 17 23  1  0  0  0  0 
 17 42  1  0  0  0  0 
 17 43  1  0  0  0  0 
 18 44  1  0  0  0  0 
 18 45  1  0  0  0  0 
 19 46  1  0  0  0  0 
 19 47  1  0  0  0  0 
 19 48  1  0  0  0  0 
 20 49  1  0  0  0  0 
 21 50  1  0  0  0  0 
 21 51  1  0  0  0  0 
 21 52  1  0  0  0  0 
 22 24  1  0  0  0  0 
 22 53  1  0  0  0  0 
 22 54  1  0  0  0  0 
 23 24  1  0  0  0  0 
 23 55  1  0  0  0  0 
 23 56  1  0  0  0  0 
 24 57  1  0  0  0  0 
 25 26  1  0  0  0  0 
 26 27  2  0  0  0  0 
 26 28  1  0  0  0  0 
 27 29  1  0  0  0  0 
 27 60  1  0  0  0  0 
 28 30  2  0  0  0  0 
 28 61  1  0  0  0  0 
 29 62  1  0  0  0  0 
 30 63  1  0  0  0  0 
M  END
> <cdk:Title>
16403572

> <cdk:Remark>
null

> <PUBCHEM_COMPOUND_CID>
16403572

> <PUBCHEM_COMPOUND_CANONICALIZED>
1

> <PUBCHEM_CACTVS_COMPLEXITY>
756

> <PUBCHEM_CACTVS_HBOND_ACCEPTOR>
4

> <PUBCHEM_CACTVS_HBOND_DONOR>
2

> <PUBCHEM_CACTVS_ROTATABLE_BOND>
2

> <PUBCHEM_CACTVS_SUBSKEYS>
AAADcfB7MAAAAAAAAAAAAAAAAAAAAYAAAAA8YIEAAAAAAGCBgAAAHgAYCAAADxzhmgY+gJJqEgCoAzF3VACSgCA1AiAa2CE4ZNgIMHLAlZGEYQhkyADIyYeUwPAPgAAAAAAAAADAAAQAACAAAAAACAAAAA==

> <PUBCHEM_IUPAC_OPENEYE_NAME>
N-[(Z)-[(3S,8R,9S,10R,13S,14S)-3-hydroxy-10,13-dimethyl-1,2,3,4,7,8,9,11,12,14,15,16-dodecahydrocyclopenta[a]phenanthren-17-ylidene]amino]pyridine-4-carboxamide

> <PUBCHEM_IUPAC_CAS_NAME>
N-[(Z)-[(3S,8R,9S,10R,13S,14S)-3-hydroxy-10,13-dimethyl-1,2,3,4,7,8,9,11,12,14,15,16-dodecahydrocyclopenta[a]phenanthren-17-ylidene]amino]-4-pyridinecarboxamide

> <PUBCHEM_IUPAC_NAME>
N-[(Z)-[(3S,8R,9S,10R,13S,14S)-3-hydroxy-10,13-dimethyl-1,2,3,4,7,8,9,11,12,14,15,16-dodecahydrocyclopenta[a]phenanthren-17-ylidene]amino]pyridine-4-carboxamide

> <PUBCHEM_IUPAC_SYSTEMATIC_NAME>
N-[(Z)-[(3S,8R,9S,10R,13S,14S)-10,13-dimethyl-3-oxidanyl-1,2,3,4,7,8,9,11,12,14,15,16-dodecahydrocyclopenta[a]phenanthren-17-ylidene]amino]pyridine-4-carboxamide

> <PUBCHEM_IUPAC_TRADITIONAL_NAME>
N-[(Z)-[(3S,8R,9S,10R,13S,14S)-3-hydroxy-10,13-dimethyl-1,2,3,4,7,8,9,11,12,14,15,16-dodecahydrocyclopenta[a]phenanthren-17-ylidene]amino]isonicotinamide

> <PUBCHEM_IUPAC_INCHI>
InChI=1S/C25H33N3O2/c1-24-11-7-18(29)15-17(24)3-4-19-20-5-6-22(25(20,2)12-8-21(19)24)27-28-23(30)16-9-13-26-14-10-16/h3,9-10,13-14,18-21,29H,4-8,11-12,15H2,1-2H3,(H,28,30)/b27-22-/t18-,19-,20-,21-,24-,25-/m0/s1

> <PUBCHEM_IUPAC_INCHIKEY>
XTRFLDXRIWZDQW-XHUPIDBLSA-N

> <PUBCHEM_XLOGP3>
3.6

> <PUBCHEM_EXACT_MASS>
407.257277

> <PUBCHEM_MOLECULAR_FORMULA>
C25H33N3O2

> <PUBCHEM_MOLECULAR_WEIGHT>
407.54842

> <PUBCHEM_OPENEYE_CAN_SMILES>
CC12CCC3C(C1CCC2=NNC(=O)C4=CC=NC=C4)CC=C5C3(CCC(C5)O)C

> <PUBCHEM_OPENEYE_ISO_SMILES>
C[C@]1\2CC[C@H]3[C@H]([C@@H]1CC/C2=N/NC(=O)C4=CC=NC=C4)CC=C5[C@@]3(CC[C@@H](C5)O)C

> <PUBCHEM_CACTVS_TPSA>
74.6

> <PUBCHEM_MONOISOTOPIC_WEIGHT>
407.257277

> <PUBCHEM_TOTAL_CHARGE>
0

> <PUBCHEM_HEAVY_ATOM_COUNT>
30

> <PUBCHEM_ATOM_DEF_STEREO_COUNT>
6

> <PUBCHEM_ATOM_UDEF_STEREO_COUNT>
0

> <PUBCHEM_BOND_DEF_STEREO_COUNT>
1

> <PUBCHEM_BOND_UDEF_STEREO_COUNT>
0

> <PUBCHEM_ISOTOPIC_ATOM_COUNT>
0

> <PUBCHEM_COMPONENT_COUNT>
1

> <PUBCHEM_CACTVS_TAUTO_COUNT>
2

> <PUBCHEM_COORDINATE_TYPE>
1

> <PUBCHEM_BONDANNOTATIONS>
24  1  5

$$$$
