
  CDK     0224152114

 16 18  0  0  0  0  0  0  0  0999 V2000
    4.3801    1.0537    0.0000 S   0  0  0  0  0  0  0  0  0  0  0  0
    6.0650   -1.4679    0.0000 N   0  0  0  0  0  0  0  0  0  0  0  0
    5.8062   -2.4339    0.0000 C   0  0  0  0  0  0  0  0  0  0  0  0
    4.8284   -0.6193    0.0000 C   0  0  3  0  0  0  0  0  0  0  0  0
    5.6944   -0.1193    0.0000 C   0  0  0  0  0  0  0  0  0  0  0  0
    4.0742   -3.4339    0.0000 C   0  0  0  0  0  0  0  0  0  0  0  0
    7.6382   -3.1927    0.0000 C   0  0  0  0  0  0  0  0  0  0  0  0
    3.5742   -2.5678    0.0000 C   0  0  0  0  0  0  0  0  0  0  0  0
    7.8970   -2.2268    0.0000 C   0  0  0  0  0  0  0  0  0  0  0  0
    4.1213    0.0878    0.0000 C   0  0  3  0  0  0  0  0  0  0  0  0
    3.6730    1.7608    0.0000 C   0  0  0  0  0  0  0  0  0  0  0  0
    3.9318    2.7268    0.0000 C   0  0  0  0  0  0  0  0  0  0  0  0
    2.7071    1.5020    0.0000 C   0  0  0  0  0  0  0  0  0  0  0  0
    3.2247    3.4339    0.0000 C   0  0  0  0  0  0  0  0  0  0  0  0
    2.0000    2.2091    0.0000 C   0  0  0  0  0  0  0  0  0  0  0  0
    2.2588    3.1750    0.0000 C   0  0  0  0  0  0  0  0  0  0  0  0
  1 10  1  0  0  0  0 
  1 11  1  0  0  0  0 
  2  5  1  0  0  0  0 
  2  8  1  0  0  0  0 
  2  9  1  0  0  0  0 
  3  4  1  0  0  0  0 
  3  6  1  0  0  0  0 
  3  7  1  0  0  0  0 
  4  5  1  0  0  0  0 
  4 10  1  0  0  0  0 
  6  8  1  0  0  0  0 
  7  9  1  0  0  0  0 
 11 12  1  0  0  0  0 
 11 13  1  0  0  0  0 
 12 14  1  0  0  0  0 
 13 15  1  0  0  0  0 
 14 16  1  0  0  0  0 
 15 16  1  0  0  0  0 
M  END
> <PUBCHEM_COMPOUND_CID>
10446339

$$$$
