
  CDK     0224151638

 23 25  0  0  0  0  0  0  0  0999 V2000
    4.5981   -0.3965    0.0000 S   0  0  0  0  0  0  0  0  0  0  0  0
    5.2791    3.8649    0.0000 O   0  0  0  0  0  0  0  0  0  0  0  0
    5.4071    1.1913    0.0000 N   0  0  0  0  0  0  0  0  0  0  0  0
    4.0981    2.1424    0.0000 N   0  0  0  0  0  0  0  0  0  0  0  0
    3.7891    1.1913    0.0000 N   0  0  0  0  0  0  0  0  0  0  0  0
    2.8660   -2.3965    0.0000 N   0  0  0  0  0  0  0  0  0  0  0  0
    5.0981    2.1424    0.0000 C   0  0  0  0  0  0  0  0  0  0  0  0
    4.5981    0.6035    0.0000 C   0  0  0  0  0  0  0  0  0  0  0  0
    5.6859    2.9514    0.0000 C   0  0  0  0  0  0  0  0  0  0  0  0
    3.7320   -0.8965    0.0000 C   0  0  0  0  0  0  0  0  0  0  0  0
    5.8669    4.6739    0.0000 C   0  0  0  0  0  0  0  0  0  0  0  0
    3.7320   -1.8965    0.0000 C   0  0  0  0  0  0  0  0  0  0  0  0
    2.8660   -3.3965    0.0000 C   0  0  0  0  0  0  0  0  0  0  0  0
    6.8614    4.5694    0.0000 C   0  0  0  0  0  0  0  0  0  0  0  0
    5.4602    5.5875    0.0000 C   0  0  0  0  0  0  0  0  0  0  0  0
    2.0000   -3.8965    0.0000 C   0  0  0  0  0  0  0  0  0  0  0  0
    3.7320   -3.8965    0.0000 C   0  0  0  0  0  0  0  0  0  0  0  0
    7.4492    5.3784    0.0000 C   0  0  0  0  0  0  0  0  0  0  0  0
    6.0480    6.3965    0.0000 C   0  0  0  0  0  0  0  0  0  0  0  0
    7.0425    6.2920    0.0000 C   0  0  0  0  0  0  0  0  0  0  0  0
    2.0000   -4.8965    0.0000 C   0  0  0  0  0  0  0  0  0  0  0  0
    3.7320   -4.8965    0.0000 C   0  0  0  0  0  0  0  0  0  0  0  0
    2.8660   -5.3965    0.0000 C   0  0  0  0  0  0  0  0  0  0  0  0
  1  8  1  0  0  0  0 
  1 10  1  0  0  0  0 
  2  9  1  0  0  0  0 
  2 11  1  0  0  0  0 
  3  7  1  0  0  0  0 
  3  8  1  0  0  0  0 
  4  5  1  0  0  0  0 
  4  7  1  0  0  0  0 
  5  8  1  0  0  0  0 
  6 12  1  0  0  0  0 
  6 13  1  0  0  0  0 
  7  9  1  0  0  0  0 
 10 12  1  0  0  0  0 
 11 14  1  0  0  0  0 
 11 15  1  0  0  0  0 
 13 16  1  0  0  0  0 
 13 17  1  0  0  0  0 
 14 18  1  0  0  0  0 
 15 19  1  0  0  0  0 
 16 21  1  0  0  0  0 
 17 22  1  0  0  0  0 
 18 20  1  0  0  0  0 
 19 20  1  0  0  0  0 
 21 23  1  0  0  0  0 
 22 23  1  0  0  0  0 
M  END
> <PUBCHEM_COMPOUND_CID>
17679549

$$$$
