
  CDK     0202151410

  8  7  0  0  0  0  0  0  0  0999 V2000
    4.5000    0.5000    0.0000 O   0  0  0  0  0  0  0  0  0  0  0  0
    3.0000   -0.3660    0.0000 C   0  0  0  0  0  0  0  0  0  0  0  0
    2.0000   -0.3660    0.0000 C   0  0  0  0  0  0  0  0  0  0  0  0
    3.0000   -1.3660    0.0000 C   0  0  0  0  0  0  0  0  0  0  0  0
    3.0000    0.6340    0.0000 C   0  0  0  0  0  0  0  0  0  0  0  0
    4.0000   -0.3660    0.0000 C   0  0  0  0  0  0  0  0  0  0  0  0
    5.5000    0.5000    0.0000 C   0  0  0  0  0  0  0  0  0  0  0  0
    6.0000    1.3660    0.0000 C   0  0  0  0  0  0  0  0  0  0  0  0
  1  6  1  0  0  0  0 
  1  7  1  0  0  0  0 
  2  3  1  0  0  0  0 
  2  4  1  0  0  0  0 
  2  5  1  0  0  0  0 
  2  6  1  0  0  0  0 
  7  8  1  0  0  0  0 
M  END
> <PUBCHEM_COMPOUND_CID>
11217487

$$$$

  CDK     0202151410

  8  7  0  0  0  0  0  0  0  0999 V2000
    4.5000    0.5000    0.0000 O   0  0  0  0  0  0  0  0  0  0  0  0
    3.0000   -0.3660    0.0000 C   0  0  0  0  0  0  0  0  0  0  0  0
    2.0000   -0.3660    0.0000 C   0  0  0  0  0  0  0  0  0  0  0  0
    3.0000   -1.3660    0.0000 C   0  0  0  0  0  0  0  0  0  0  0  0
    3.0000    0.6340    0.0000 C   0  0  0  0  0  0  0  0  0  0  0  0
    4.0000   -0.3660    0.0000 C   0  0  0  0  0  0  0  0  0  0  0  0
    5.5000    0.5000    0.0000 C   0  0  0  0  0  0  0  0  0  0  0  0
    6.0000    1.3660    0.0000 C   0  0  0  0  0  0  0  0  0  0  0  0
  1  6  1  0  0  0  0 
  1  7  1  0  0  0  0 
  2  3  1  0  0  0  0 
  2  4  1  0  0  0  0 
  2  5  1  0  0  0  0 
  2  6  1  0  0  0  0 
  7  8  1  0  0  0  0 
M  END
> <PUBCHEM_COMPOUND_CID>
11217487

$$$$
