
  CDK     0202151410

 21 22  0  0  0  0  0  0  0  0999 V2000
    7.4888    2.4283    0.0000 Cl  0  0  0  0  0  0  0  0  0  0  0  0
    6.6227    3.9283    0.0000 S   0  0  0  0  0  0  0  0  0  0  0  0
    5.7567    3.4283    0.0000 O   0  0  0  0  0  0  0  0  0  0  0  0
    3.3080   -1.4081    0.0000 O   0  0  0  0  0  0  0  0  0  0  0  0
    4.0246    2.4283    0.0000 O   0  0  0  0  0  0  0  0  0  0  0  0
    6.1227    4.7943    0.0000 O   0  0  0  0  0  0  0  0  0  0  0  0
    7.1227    3.0623    0.0000 O   0  0  0  0  0  0  0  0  0  0  0  0
    4.7861   -2.0662    0.0000 N   0  0  0  0  0  0  0  0  0  0  0  0
    7.4888    4.4283    0.0000 C   0  0  0  0  0  0  0  0  0  0  0  0
    5.7567    0.4283    0.0000 C   0  0  0  0  0  0  0  0  0  0  0  0
    5.7567    2.4283    0.0000 C   0  0  0  0  0  0  0  0  0  0  0  0
    4.8907    1.9283    0.0000 C   0  0  0  0  0  0  0  0  0  0  0  0
    4.8907    0.9283    0.0000 C   0  0  0  0  0  0  0  0  0  0  0  0
    6.6227    0.9283    0.0000 C   0  0  0  0  0  0  0  0  0  0  0  0
    6.6227    1.9283    0.0000 C   0  0  0  0  0  0  0  0  0  0  0  0
    5.7567   -0.5717    0.0000 C   0  0  0  0  0  0  0  0  0  0  0  0
    4.8907   -1.0717    0.0000 C   0  0  0  0  0  0  0  0  0  0  0  0
    3.4013   -3.1877    0.0000 C   0  0  0  0  0  0  0  0  0  0  0  0
    3.8080   -2.2741    0.0000 C   0  0  0  0  0  0  0  0  0  0  0  0
    3.9771   -0.6650    0.0000 C   0  0  0  0  0  0  0  0  0  0  0  0
    3.1586    1.9283    0.0000 C   0  0  0  0  0  0  0  0  0  0  0  0
  1 15  1  0  0  0  0 
  2  3  1  0  0  0  0 
  2  6  1  0  0  0  0 
  2  7  1  0  0  0  0 
  2  9  1  0  0  0  0 
  3 11  1  0  0  0  0 
  4 19  1  0  0  0  0 
  4 20  1  0  0  0  0 
  5 12  1  0  0  0  0 
  5 21  1  0  0  0  0 
  8 17  1  0  0  0  0 
  8 19  1  0  0  0  0 
 10 13  1  0  0  0  0 
 10 14  1  0  0  0  0 
 10 16  1  0  0  0  0 
 11 12  1  0  0  0  0 
 11 15  1  0  0  0  0 
 12 13  1  0  0  0  0 
 14 15  1  0  0  0  0 
 16 17  1  0  0  0  0 
 17 20  1  0  0  0  0 
 18 19  1  0  0  0  0 
M  END
> <PUBCHEM_COMPOUND_CID>
5733434

$$$$
