
  CDK     0202151410

 21 23  0  0  0  0  0  0  0  0999 V2000
    4.4094   -0.8604    0.0000 O   0  0  0  0  0  0  0  0  0  0  0  0
    4.9613    1.6140    0.0000 O   0  0  0  0  0  0  0  0  0  0  0  0
    7.9014   -0.8257    0.0000 O   0  0  0  0  0  0  0  0  0  0  0  0
    6.1694   -1.8257    0.0000 O   0  0  0  0  0  0  0  0  0  0  0  0
    6.1694    1.1743    0.0000 C   0  0  1  0  0  0  0  0  0  0  0  0
    7.0354    0.6743    0.0000 C   0  0  2  0  0  0  0  0  0  0  0  0
    5.3033    0.6743    0.0000 C   0  0  1  0  0  0  0  0  0  0  0  0
    5.3033   -0.3257    0.0000 C   0  0  1  0  0  0  0  0  0  0  0  0
    7.9454    1.1811    0.0000 C   0  0  0  0  0  0  0  0  0  0  0  0
    7.0354   -0.3257    0.0000 C   0  0  1  0  0  0  0  0  0  0  0  0
    6.1533    2.2158    0.0000 C   0  0  2  0  0  0  0  0  0  0  0  0
    6.1694   -0.8257    0.0000 C   0  0  2  0  0  0  0  0  0  0  0  0
    7.9534    2.2227    0.0000 C   0  0  0  0  0  0  0  0  0  0  0  0
    7.0513    2.7436    0.0000 C   0  0  0  0  0  0  0  0  0  0  0  0
    5.5266    1.9403    0.0000 C   0  0  0  0  0  0  0  0  0  0  0  0
    4.4094    1.2090    0.0000 C   0  0  0  0  0  0  0  0  0  0  0  0
    5.3033   -1.3257    0.0000 C   0  0  0  0  0  0  0  0  0  0  0  0
    3.5033   -0.3465    0.0000 C   0  0  1  0  0  0  0  0  0  0  0  0
    3.5033    0.6951    0.0000 C   0  0  0  0  0  0  0  0  0  0  0  0
    7.9014   -1.8257    0.0000 C   0  0  0  0  0  0  0  0  0  0  0  0
    5.3033   -2.3257    0.0000 C   0  0  0  0  0  0  0  0  0  0  0  0
  1  8  1  0  0  0  0 
  1 18  1  0  0  0  0 
  7  2  1  1  0  0  0 
 10  3  1  6  0  0  0 
  3 20  1  0  0  0  0 
 12  4  1  6  0  0  0 
  4 21  1  0  0  0  0 
  5  6  1  0  0  0  0 
  5  7  1  0  0  0  0 
  5 11  1  0  0  0  0 
  5 15  1  6  0  0  0 
  6  9  1  0  0  0  0 
  6 10  1  0  0  0  0 
  7  8  1  0  0  0  0 
  7 16  1  0  0  0  0 
  8 12  1  0  0  0  0 
  8 17  1  6  0  0  0 
  9 13  1  0  0  0  0 
 10 12  1  0  0  0  0 
 11 14  1  0  0  0  0 
 13 14  1  0  0  0  0 
 16 19  1  0  0  0  0 
 18 19  1  0  0  0  0 
M  END
> <PUBCHEM_COMPOUND_CID>
177270

$$$$
