
  CDK     1227140956

 17 19  0  0  0  0  0  0  0  0999 V2000
    2.8660   -2.3100    0.0000 N   0  0  0  0  0  0  0  0  0  0  0  0
    2.8660    1.6900    0.0000 N   0  0  0  0  0  0  0  0  0  0  0  0
    3.7320    3.1900    0.0000 C   0  0  0  0  0  0  0  0  0  0  0  0
    3.2320    4.0560    0.0000 C   0  0  0  0  0  0  0  0  0  0  0  0
    2.7320    3.1900    0.0000 C   0  0  0  0  0  0  0  0  0  0  0  0
    3.7320    2.1900    0.0000 C   0  0  0  0  0  0  0  0  0  0  0  0
    2.0000   -2.8100    0.0000 C   0  0  0  0  0  0  0  0  0  0  0  0
    3.7320   -2.8100    0.0000 C   0  0  0  0  0  0  0  0  0  0  0  0
    2.0000   -3.8100    0.0000 C   0  0  0  0  0  0  0  0  0  0  0  0
    3.7320   -3.8100    0.0000 C   0  0  0  0  0  0  0  0  0  0  0  0
    2.8660   -4.3100    0.0000 C   0  0  0  0  0  0  0  0  0  0  0  0
    2.8660   -1.3100    0.0000 C   0  0  0  0  0  0  0  0  0  0  0  0
    2.8660    0.6900    0.0000 C   0  0  0  0  0  0  0  0  0  0  0  0
    2.0000   -0.8100    0.0000 C   0  0  0  0  0  0  0  0  0  0  0  0
    3.7320   -0.8100    0.0000 C   0  0  0  0  0  0  0  0  0  0  0  0
    2.0000    0.1900    0.0000 C   0  0  0  0  0  0  0  0  0  0  0  0
    3.7320    0.1900    0.0000 C   0  0  0  0  0  0  0  0  0  0  0  0
  1  7  1  0  0  0  0 
  1  8  1  0  0  0  0 
  1 12  1  0  0  0  0 
  2  6  1  0  0  0  0 
  2 13  1  0  0  0  0 
  3  4  1  0  0  0  0 
  3  5  1  0  0  0  0 
  3  6  1  0  0  0  0 
  4  5  1  0  0  0  0 
  7  9  1  0  0  0  0 
  8 10  1  0  0  0  0 
  9 11  1  0  0  0  0 
 10 11  1  0  0  0  0 
 12 14  1  0  0  0  0 
 12 15  1  0  0  0  0 
 13 16  1  0  0  0  0 
 13 17  1  0  0  0  0 
 14 16  1  0  0  0  0 
 15 17  1  0  0  0  0 
M  END
> <PUBCHEM_COMPOUND_CID>
65465722

$$$$

  CDK     1227140956

 17 19  0  0  0  0  0  0  0  0999 V2000
    4.6783    0.6708    0.0000 O   0  0  0  0  0  0  0  0  0  0  0  0
    6.7619   -1.0000    0.0000 N   0  0  0  0  0  0  0  0  0  0  0  0
    3.7320    0.3660    0.0000 C   0  0  0  0  0  0  0  0  0  0  0  0
    3.7320   -0.6340    0.0000 C   0  0  0  0  0  0  0  0  0  0  0  0
    5.2619   -0.1340    0.0000 C   0  0  0  0  0  0  0  0  0  0  0  0
    2.8660    0.8660    0.0000 C   0  0  0  0  0  0  0  0  0  0  0  0
    4.6783   -0.9387    0.0000 C   0  0  0  0  0  0  0  0  0  0  0  0
    6.2619   -0.1340    0.0000 C   0  0  0  0  0  0  0  0  0  0  0  0
    2.8660   -1.1340    0.0000 C   0  0  0  0  0  0  0  0  0  0  0  0
    2.0000    0.3660    0.0000 C   0  0  0  0  0  0  0  0  0  0  0  0
    7.7619   -1.0000    0.0000 C   0  0  0  0  0  0  0  0  0  0  0  0
    2.0000   -0.6340    0.0000 C   0  0  0  0  0  0  0  0  0  0  0  0
    8.2619   -1.8660    0.0000 C   0  0  0  0  0  0  0  0  0  0  0  0
    8.2619   -0.1340    0.0000 C   0  0  0  0  0  0  0  0  0  0  0  0
    9.2619   -1.8660    0.0000 C   0  0  0  0  0  0  0  0  0  0  0  0
    9.2619   -0.1340    0.0000 C   0  0  0  0  0  0  0  0  0  0  0  0
    9.7619   -1.0000    0.0000 C   0  0  0  0  0  0  0  0  0  0  0  0
  1  3  1  0  0  0  0 
  1  5  1  0  0  0  0 
  2  8  1  0  0  0  0 
  2 11  1  0  0  0  0 
  3  4  1  0  0  0  0 
  3  6  1  0  0  0  0 
  4  7  1  0  0  0  0 
  4  9  1  0  0  0  0 
  5  7  1  0  0  0  0 
  5  8  1  0  0  0  0 
  6 10  1  0  0  0  0 
  9 12  1  0  0  0  0 
 10 12  1  0  0  0  0 
 11 13  1  0  0  0  0 
 11 14  1  0  0  0  0 
 13 15  1  0  0  0  0 
 14 16  1  0  0  0  0 
 15 17  1  0  0  0  0 
 16 17  1  0  0  0  0 
M  END
> <PUBCHEM_COMPOUND_CID>
48983308

$$$$

  CDK     1227140956

 17 19  0  0  0  0  0  0  0  0999 V2000
    9.3292    0.8082    0.0000 N   0  0  0  0  0  0  0  0  0  0  0  0
    9.6382   -0.1429    0.0000 N   0  0  0  0  0  0  0  0  0  0  0  0
    8.3292    0.8082    0.0000 C   0  0  0  0  0  0  0  0  0  0  0  0
    8.0202   -0.1429    0.0000 C   0  0  0  0  0  0  0  0  0  0  0  0
    8.8292   -0.7307    0.0000 C   0  0  0  0  0  0  0  0  0  0  0  0
    9.9170    1.6172    0.0000 C   0  0  0  0  0  0  0  0  0  0  0  0
    8.8292   -1.7307    0.0000 C   0  0  0  0  0  0  0  0  0  0  0  0
   10.9115    1.5127    0.0000 C   0  0  0  0  0  0  0  0  0  0  0  0
    9.5103    2.5307    0.0000 C   0  0  0  0  0  0  0  0  0  0  0  0
    7.9632   -2.2307    0.0000 C   0  0  0  0  0  0  0  0  0  0  0  0
    9.6952   -2.2307    0.0000 C   0  0  0  0  0  0  0  0  0  0  0  0
   11.4993    2.3217    0.0000 C   0  0  0  0  0  0  0  0  0  0  0  0
   10.0981    3.3398    0.0000 C   0  0  0  0  0  0  0  0  0  0  0  0
    7.9632   -3.2307    0.0000 C   0  0  0  0  0  0  0  0  0  0  0  0
    9.6952   -3.2307    0.0000 C   0  0  0  0  0  0  0  0  0  0  0  0
   11.0926    3.2352    0.0000 C   0  0  0  0  0  0  0  0  0  0  0  0
    8.8292   -3.7307    0.0000 C   0  0  0  0  0  0  0  0  0  0  0  0
  1  2  1  0  0  0  0 
  1  3  1  0  0  0  0 
  1  6  1  0  0  0  0 
  2  5  1  0  0  0  0 
  3  4  1  0  0  0  0 
  4  5  1  0  0  0  0 
  5  7  1  0  0  0  0 
  6  8  1  0  0  0  0 
  6  9  1  0  0  0  0 
  7 10  1  0  0  0  0 
  7 11  1  0  0  0  0 
  8 12  1  0  0  0  0 
  9 13  1  0  0  0  0 
 10 14  1  0  0  0  0 
 11 15  1  0  0  0  0 
 12 16  1  0  0  0  0 
 13 16  1  0  0  0  0 
 14 17  1  0  0  0  0 
 15 17  1  0  0  0  0 
M  END
> <PUBCHEM_COMPOUND_CID>
3437967

$$$$

  CDK     1227140956

 17 19  0  0  0  0  0  0  0  0999 V2000
    7.2641    0.6594    0.0000 N   0  0  3  0  0  0  0  0  0  0  0  0
    4.5981   -0.8615    0.0000 N   0  0  0  0  0  0  0  0  0  0  0  0
    3.7320    0.6385    0.0000 N   0  0  0  0  0  0  0  0  0  0  0  0
    7.2641   -0.3823    0.0000 C   0  0  0  0  0  0  0  0  0  0  0  0
    6.3580   -0.8961    0.0000 C   0  0  0  0  0  0  0  0  0  0  0  0
    5.4641   -0.3615    0.0000 C   0  0  0  0  0  0  0  0  0  0  0  0
    6.3580    1.1732    0.0000 C   0  0  0  0  0  0  0  0  0  0  0  0
    5.4641    0.6385    0.0000 C   0  0  0  0  0  0  0  0  0  0  0  0
    3.7320   -0.3615    0.0000 C   0  0  0  0  0  0  0  0  0  0  0  0
    8.1282    1.1627    0.0000 C   0  0  0  0  0  0  0  0  0  0  0  0
    4.5981    1.1385    0.0000 C   0  0  0  0  0  0  0  0  0  0  0  0
    8.9962    0.6660    0.0000 C   0  0  0  0  0  0  0  0  0  0  0  0
    9.0000   -0.3340    0.0000 C   0  0  0  0  0  0  0  0  0  0  0  0
    9.8602    1.1694    0.0000 C   0  0  0  0  0  0  0  0  0  0  0  0
    9.8680   -0.8306    0.0000 C   0  0  0  0  0  0  0  0  0  0  0  0
   10.7282    0.6727    0.0000 C   0  0  0  0  0  0  0  0  0  0  0  0
   10.7320   -0.3273    0.0000 C   0  0  0  0  0  0  0  0  0  0  0  0
  1  4  1  0  0  0  0 
  1  7  1  0  0  0  0 
  1 10  1  0  0  0  0 
  2  6  1  0  0  0  0 
  2  9  1  0  0  0  0 
  3  9  1  0  0  0  0 
  3 11  1  0  0  0  0 
  4  5  1  0  0  0  0 
  5  6  1  0  0  0  0 
  6  8  1  0  0  0  0 
  7  8  1  0  0  0  0 
  8 11  1  0  0  0  0 
 10 12  1  0  0  0  0 
 12 13  1  0  0  0  0 
 12 14  1  0  0  0  0 
 13 15  1  0  0  0  0 
 14 16  1  0  0  0  0 
 15 17  1  0  0  0  0 
 16 17  1  0  0  0  0 
M  END
> <PUBCHEM_COMPOUND_CID>
24925153

$$$$

  CDK     1227140956

 17 19  0  0  0  0  0  0  0  0999 V2000
    5.4641   -0.5173    0.0000 N   0  0  0  0  0  0  0  0  0  0  0  0
    7.2241    0.4480    0.0000 N   0  0  0  0  0  0  0  0  0  0  0  0
    4.5981    0.9827    0.0000 N   0  0  0  0  0  0  0  0  0  0  0  0
    8.1301    2.0035    0.0000 N   0  0  0  0  0  0  0  0  0  0  0  0
    5.4641    2.4827    0.0000 N   0  0  0  0  0  0  0  0  0  0  0  0
    6.3301    0.9827    0.0000 C   0  0  0  0  0  0  0  0  0  0  0  0
    4.5981   -1.0173    0.0000 C   0  0  0  0  0  0  0  0  0  0  0  0
    5.4641    0.4827    0.0000 C   0  0  0  0  0  0  0  0  0  0  0  0
    6.3301    1.9827    0.0000 C   0  0  0  0  0  0  0  0  0  0  0  0
    3.7320   -0.5173    0.0000 C   0  0  0  0  0  0  0  0  0  0  0  0
    2.8660   -1.0173    0.0000 C   0  0  0  0  0  0  0  0  0  0  0  0
    8.1301    0.9619    0.0000 C   0  0  0  0  0  0  0  0  0  0  0  0
    4.5981   -2.0173    0.0000 C   0  0  0  0  0  0  0  0  0  0  0  0
    2.8660   -2.0173    0.0000 C   0  0  0  0  0  0  0  0  0  0  0  0
    3.7320   -2.5173    0.0000 C   0  0  0  0  0  0  0  0  0  0  0  0
    7.2241    2.5173    0.0000 C   0  0  0  0  0  0  0  0  0  0  0  0
    4.5981    1.9827    0.0000 C   0  0  0  0  0  0  0  0  0  0  0  0
  1  7  1  0  0  0  0 
  1  8  1  0  0  0  0 
  2  6  1  0  0  0  0 
  2 12  1  0  0  0  0 
  3  8  1  0  0  0  0 
  3 17  1  0  0  0  0 
  4 12  1  0  0  0  0 
  4 16  1  0  0  0  0 
  5  9  1  0  0  0  0 
  5 17  1  0  0  0  0 
  6  8  1  0  0  0  0 
  6  9  1  0  0  0  0 
  7 10  1  0  0  0  0 
  7 13  1  0  0  0  0 
  9 16  1  0  0  0  0 
 10 11  1  0  0  0  0 
 11 14  1  0  0  0  0 
 13 15  1  0  0  0  0 
 14 15  1  0  0  0  0 
M  END
> <PUBCHEM_COMPOUND_CID>
19709223

$$$$
