52580118
  CDK     0104151054

 48 51  0  0  0  0  0  0  0  0999 V2000
    2.9180   -1.2846    0.0000 O   0  0  0  0  0  0  0  0  0  0  0  0
    6.3821   -1.2846    0.0000 O   0  0  0  0  0  0  0  0  0  0  0  0
    4.6501   -0.2846    0.0000 N   0  0  3  0  0  0  0  0  0  0  0  0
    7.2482    0.2154    0.0000 N   0  0  0  0  0  0  0  0  0  0  0  0
    4.6501   -1.2846    0.0000 C   0  0  0  0  0  0  0  0  0  0  0  0
    5.5161    0.2154    0.0000 C   0  0  0  0  0  0  0  0  0  0  0  0
    8.1142   -0.2846    0.0000 C   0  0  1  0  0  0  0  0  0  0  0  0
    3.7841    0.2154    0.0000 C   0  0  0  0  0  0  0  0  0  0  0  0
    3.7841   -1.7846    0.0000 C   0  0  0  0  0  0  0  0  0  0  0  0
    8.9802    0.2154    0.0000 C   0  0  0  0  0  0  0  0  0  0  0  0
    2.9180   -0.2846    0.0000 C   0  0  0  0  0  0  0  0  0  0  0  0
    6.3821   -0.2846    0.0000 C   0  0  0  0  0  0  0  0  0  0  0  0
    8.1142   -1.2846    0.0000 C   0  0  0  0  0  0  0  0  0  0  0  0
    9.8462   -0.2846    0.0000 C   0  0  0  0  0  0  0  0  0  0  0  0
    3.8001    1.2569    0.0000 C   0  0  0  0  0  0  0  0  0  0  0  0
   10.7123    0.2154    0.0000 C   0  0  0  0  0  0  0  0  0  0  0  0
    8.9802    1.2154    0.0000 C   0  0  0  0  0  0  0  0  0  0  0  0
   10.7123    1.2154    0.0000 C   0  0  0  0  0  0  0  0  0  0  0  0
    2.0080    0.2222    0.0000 C   0  0  0  0  0  0  0  0  0  0  0  0
    9.8462    1.7154    0.0000 C   0  0  0  0  0  0  0  0  0  0  0  0
    2.9021    1.7846    0.0000 C   0  0  0  0  0  0  0  0  0  0  0  0
    2.0000    1.2638    0.0000 C   0  0  0  0  0  0  0  0  0  0  0  0
   11.6062   -0.3193    0.0000 C   0  0  0  0  0  0  0  0  0  0  0  0
   11.6062    1.7500    0.0000 C   0  0  0  0  0  0  0  0  0  0  0  0
   12.5123    0.1946    0.0000 C   0  0  0  0  0  0  0  0  0  0  0  0
   12.5123    1.2362    0.0000 C   0  0  0  0  0  0  0  0  0  0  0  0
    4.8621   -1.8672    0.0000 H   0  0  0  0  0  0  0  0  0  0  0  0
    5.2607   -1.1770    0.0000 H   0  0  0  0  0  0  0  0  0  0  0  0
    8.1142    0.3354    0.0000 H   0  0  0  0  0  0  0  0  0  0  0  0
    5.9146    0.6903    0.0000 H   0  0  0  0  0  0  0  0  0  0  0  0
    5.1176    0.6903    0.0000 H   0  0  0  0  0  0  0  0  0  0  0  0
    3.3855   -2.2596    0.0000 H   0  0  0  0  0  0  0  0  0  0  0  0
    4.1826   -2.2596    0.0000 H   0  0  0  0  0  0  0  0  0  0  0  0
    7.2482    0.8354    0.0000 H   0  0  0  0  0  0  0  0  0  0  0  0
    7.4942   -1.2846    0.0000 H   0  0  0  0  0  0  0  0  0  0  0  0
    8.1142   -1.9046    0.0000 H   0  0  0  0  0  0  0  0  0  0  0  0
    8.7342   -1.2846    0.0000 H   0  0  0  0  0  0  0  0  0  0  0  0
    9.8462   -0.9046    0.0000 H   0  0  0  0  0  0  0  0  0  0  0  0
    4.3406    1.5607    0.0000 H   0  0  0  0  0  0  0  0  0  0  0  0
    8.4433    1.5254    0.0000 H   0  0  0  0  0  0  0  0  0  0  0  0
    1.4747   -0.0940    0.0000 H   0  0  0  0  0  0  0  0  0  0  0  0
    9.8462    2.3354    0.0000 H   0  0  0  0  0  0  0  0  0  0  0  0
    2.9045    2.4046    0.0000 H   0  0  0  0  0  0  0  0  0  0  0  0
    1.4619    1.5717    0.0000 H   0  0  0  0  0  0  0  0  0  0  0  0
   11.5990   -0.9392    0.0000 H   0  0  0  0  0  0  0  0  0  0  0  0
   11.5990    2.3700    0.0000 H   0  0  0  0  0  0  0  0  0  0  0  0
   13.0480   -0.1175    0.0000 H   0  0  0  0  0  0  0  0  0  0  0  0
   13.0480    1.5482    0.0000 H   0  0  0  0  0  0  0  0  0  0  0  0
  1  9  1  0  0  0  0 
  1 11  1  0  0  0  0 
  2 12  2  0  0  0  0 
  3  5  1  0  0  0  0 
  3  6  1  0  0  0  0 
  3  8  1  0  0  0  0 
  7  4  1  1  0  0  0 
  4 12  1  0  0  0  0 
  4 34  1  0  0  0  0 
  5  9  1  0  0  0  0 
  5 27  1  0  0  0  0 
  5 28  1  0  0  0  0 
  6 12  1  0  0  0  0 
  6 30  1  0  0  0  0 
  6 31  1  0  0  0  0 
  7 10  1  0  0  0  0 
  7 13  1  0  0  0  0 
  7 29  1  0  0  0  0 
  8 11  1  0  0  0  0 
  8 15  2  0  0  0  0 
  9 32  1  0  0  0  0 
  9 33  1  0  0  0  0 
 10 14  2  0  0  0  0 
 10 17  1  0  0  0  0 
 11 19  2  0  0  0  0 
 13 35  1  0  0  0  0 
 13 36  1  0  0  0  0 
 13 37  1  0  0  0  0 
 14 16  1  0  0  0  0 
 14 38  1  0  0  0  0 
 15 21  1  0  0  0  0 
 15 39  1  0  0  0  0 
 16 18  1  0  0  0  0 
 16 23  2  0  0  0  0 
 17 20  2  0  0  0  0 
 17 40  1  0  0  0  0 
 18 20  1  0  0  0  0 
 18 24  2  0  0  0  0 
 19 22  1  0  0  0  0 
 19 41  1  0  0  0  0 
 20 42  1  0  0  0  0 
 21 22  2  0  0  0  0 
 21 43  1  0  0  0  0 
 22 44  1  0  0  0  0 
 23 25  1  0  0  0  0 
 23 45  1  0  0  0  0 
 24 26  1  0  0  0  0 
 24 46  1  0  0  0  0 
 25 26  2  0  0  0  0 
 25 47  1  0  0  0  0 
 26 48  1  0  0  0  0 
M  END
> <cdk:Title>
52580118

> <cdk:Remark>
null

> <PUBCHEM_COMPOUND_CID>
52580118

> <PUBCHEM_COMPOUND_CANONICALIZED>
1

> <PUBCHEM_CACTVS_COMPLEXITY>
483

> <PUBCHEM_CACTVS_HBOND_ACCEPTOR>
3

> <PUBCHEM_CACTVS_HBOND_DONOR>
1

> <PUBCHEM_CACTVS_ROTATABLE_BOND>
4

> <PUBCHEM_CACTVS_SUBSKEYS>
AAADceB7MAAAAAAAAAAAAAAAAAAAAAAAAAA8YMEAAAAAAADxVAAAHgAQAAAADCzhmAYyxsPABACIAiVSUACCCAAhIgAIiICPbIgOZiLEsbuXOCjk1hHY6AeQwMAOwAACAAAQEACAAAQAACAgAAAAAAAAAA==

> <PUBCHEM_IUPAC_OPENEYE_NAME>
2-(2,3-dihydro-1,4-benzoxazin-4-yl)-N-[(1R)-1-(2-naphthyl)ethyl]acetamide

> <PUBCHEM_IUPAC_CAS_NAME>
2-(2,3-dihydro-1,4-benzoxazin-4-yl)-N-[(1R)-1-(2-naphthalenyl)ethyl]acetamide

> <PUBCHEM_IUPAC_NAME>
2-(2,3-dihydro-1,4-benzoxazin-4-yl)-N-[(1R)-1-naphthalen-2-ylethyl]acetamide

> <PUBCHEM_IUPAC_SYSTEMATIC_NAME>
2-(2,3-dihydro-1,4-benzoxazin-4-yl)-N-[(1R)-1-naphthalen-2-ylethyl]ethanamide

> <PUBCHEM_IUPAC_TRADITIONAL_NAME>
2-(2,3-dihydro-1,4-benzoxazin-4-yl)-N-[(1R)-1-(2-naphthyl)ethyl]acetamide

> <PUBCHEM_IUPAC_INCHI>
InChI=1S/C22H22N2O2/c1-16(18-11-10-17-6-2-3-7-19(17)14-18)23-22(25)15-24-12-13-26-21-9-5-4-8-20(21)24/h2-11,14,16H,12-13,15H2,1H3,(H,23,25)/t16-/m1/s1

> <PUBCHEM_IUPAC_INCHIKEY>
PHFIYUXVERFBSM-MRXNPFEDSA-N

> <PUBCHEM_XLOGP3_AA>
4.3

> <PUBCHEM_EXACT_MASS>
346.168128

> <PUBCHEM_MOLECULAR_FORMULA>
C22H22N2O2

> <PUBCHEM_MOLECULAR_WEIGHT>
346.42228

> <PUBCHEM_OPENEYE_CAN_SMILES>
CC(C1=CC2=CC=CC=C2C=C1)NC(=O)CN3CCOC4=CC=CC=C43

> <PUBCHEM_OPENEYE_ISO_SMILES>
C[C@H](C1=CC2=CC=CC=C2C=C1)NC(=O)CN3CCOC4=CC=CC=C43

> <PUBCHEM_CACTVS_TPSA>
41.6

> <PUBCHEM_MONOISOTOPIC_WEIGHT>
346.168128

> <PUBCHEM_TOTAL_CHARGE>
0

> <PUBCHEM_HEAVY_ATOM_COUNT>
26

> <PUBCHEM_ATOM_DEF_STEREO_COUNT>
1

> <PUBCHEM_ATOM_UDEF_STEREO_COUNT>
0

> <PUBCHEM_BOND_DEF_STEREO_COUNT>
0

> <PUBCHEM_BOND_UDEF_STEREO_COUNT>
0

> <PUBCHEM_ISOTOPIC_ATOM_COUNT>
0

> <PUBCHEM_COMPONENT_COUNT>
1

> <PUBCHEM_CACTVS_TAUTO_COUNT>
2

> <PUBCHEM_COORDINATE_TYPE>
1

> <PUBCHEM_BONDANNOTATIONS>
10  14  8

$$$$
