
  CDK     0224152114

 33 39  0  0  0  0  0  0  0  0999 V2000
   13.0614    8.2714    0.0000 O   0  0  0  0  0  0  0  0  0  0  0  0
    3.2868    9.4636    0.0000 N   0  0  0  0  0  0  0  0  0  0  0  0
    6.7945    4.9499    0.0000 N   0  0  0  0  0  0  0  0  0  0  0  0
    7.7667    5.1574    0.0000 N   0  0  0  0  0  0  0  0  0  0  0  0
   14.0250    6.2415    0.0000 N   0  0  0  0  0  0  0  0  0  0  0  0
    3.2868    7.8455    0.0000 C   0  0  3  0  0  0  0  0  0  0  0  0
    4.0300    7.1764    0.0000 C   0  0  1  0  0  0  0  0  0  0  0  0
    3.0789    6.8674    0.0000 C   0  0  0  0  0  0  0  0  0  0  0  0
    2.3358    8.1546    0.0000 C   0  0  0  0  0  0  0  0  0  0  0  0
    3.8746    8.6546    0.0000 C   0  0  0  0  0  0  0  0  0  0  0  0
    5.0081    6.9685    0.0000 C   0  0  0  0  0  0  0  0  0  0  0  0
    2.3358    9.1546    0.0000 C   0  0  0  0  0  0  0  0  0  0  0  0
    1.4418    7.6199    0.0000 C   0  0  0  0  0  0  0  0  0  0  0  0
    5.3171    6.0174    0.0000 C   0  0  0  0  0  0  0  0  0  0  0  0
    5.6772    7.7116    0.0000 C   0  0  0  0  0  0  0  0  0  0  0  0
    1.4418    9.6892    0.0000 C   0  0  0  0  0  0  0  0  0  0  0  0
    0.5357    8.1337    0.0000 C   0  0  0  0  0  0  0  0  0  0  0  0
    6.2953    5.8095    0.0000 C   0  0  0  0  0  0  0  0  0  0  0  0
    0.5357    9.1754    0.0000 C   0  0  0  0  0  0  0  0  0  0  0  0
    6.6554    7.5037    0.0000 C   0  0  0  0  0  0  0  0  0  0  0  0
    6.9644    6.5527    0.0000 C   0  0  0  0  0  0  0  0  0  0  0  0
    7.8715    6.1460    0.0000 C   0  0  0  0  0  0  0  0  0  0  0  0
    8.7384    6.6445    0.0000 C   0  0  0  0  0  0  0  0  0  0  0  0
    9.6035    6.1430    0.0000 C   0  0  0  0  0  0  0  0  0  0  0  0
   10.4704    6.6415    0.0000 C   0  0  0  0  0  0  0  0  0  0  0  0
   11.3736    6.1226    0.0000 C   0  0  0  0  0  0  0  0  0  0  0  0
   12.2705    6.6523    0.0000 C   0  0  0  0  0  0  0  0  0  0  0  0
   10.4762    7.6831    0.0000 C   0  0  0  0  0  0  0  0  0  0  0  0
   13.0488    6.0244    0.0000 C   0  0  0  0  0  0  0  0  0  0  0  0
   12.2761    7.6522    0.0000 C   0  0  0  0  0  0  0  0  0  0  0  0
   11.3852    8.1919    0.0000 C   0  0  0  0  0  0  0  0  0  0  0  0
   14.4639    7.1400    0.0000 C   0  0  0  0  0  0  0  0  0  0  0  0
   14.0351    8.0434    0.0000 C   0  0  0  0  0  0  0  0  0  0  0  0
  1 30  1  0  0  0  0 
  1 33  1  0  0  0  0 
  2 10  1  0  0  0  0 
  2 12  1  0  0  0  0 
  3  4  1  0  0  0  0 
  3 18  1  0  0  0  0 
  4 22  1  0  0  0  0 
  5 29  1  0  0  0  0 
  5 32  1  0  0  0  0 
  6  7  1  0  0  0  0 
  6  8  1  0  0  0  0 
  6  9  1  0  0  0  0 
  6 10  1  0  0  0  0 
  7  8  1  0  0  0  0 
  7 11  1  6  0  0  0 
  9 12  1  0  0  0  0 
  9 13  1  0  0  0  0 
 11 14  1  0  0  0  0 
 11 15  1  0  0  0  0 
 12 16  1  0  0  0  0 
 13 17  1  0  0  0  0 
 14 18  1  0  0  0  0 
 15 20  1  0  0  0  0 
 16 19  1  0  0  0  0 
 17 19  1  0  0  0  0 
 18 21  1  0  0  0  0 
 20 21  1  0  0  0  0 
 21 22  1  0  0  0  0 
 22 23  1  0  0  0  0 
 23 24  1  0  0  0  0 
 24 25  1  0  0  0  0 
 25 26  1  0  0  0  0 
 25 28  1  0  0  0  0 
 26 27  1  0  0  0  0 
 27 29  1  0  0  0  0 
 27 30  1  0  0  0  0 
 28 31  1  0  0  0  0 
 30 31  1  0  0  0  0 
 32 33  1  0  0  0  0 
M  END
> <PUBCHEM_COMPOUND_CID>
49785243

$$$$
