
  CDK     0224152114

 27 30  0  0  0  0  0  0  0  0999 V2000
   10.6766    0.5183    0.0000 O   0  0  0  0  0  0  0  0  0  0  0  0
    8.9282    3.5529    0.0000 N   0  0  0  0  0  0  0  0  0  0  0  0
    8.0622    2.0529    0.0000 N   0  0  0  0  0  0  0  0  0  0  0  0
    6.3301    3.0529    0.0000 N   0  0  0  0  0  0  0  0  0  0  0  0
   12.3854   -1.5016    0.0000 C   0  0  3  0  0  0  0  0  0  0  0  0
   12.4784   -2.4973    0.0000 C   0  0  0  0  0  0  0  0  0  0  0  0
   13.3036   -1.1055    0.0000 C   0  0  0  0  0  0  0  0  0  0  0  0
   13.4541   -2.7165    0.0000 C   0  0  3  0  0  0  0  0  0  0  0  0
   13.9641   -1.8563    0.0000 C   0  0  0  0  0  0  0  0  0  0  0  0
   11.5252   -0.9916    0.0000 C   0  0  0  0  0  0  0  0  0  0  0  0
   11.5368    0.0083    0.0000 C   0  0  0  0  0  0  0  0  0  0  0  0
   10.6882    1.5182    0.0000 C   0  0  0  0  0  0  0  0  0  0  0  0
    9.7942    2.0529    0.0000 C   0  0  0  0  0  0  0  0  0  0  0  0
   11.5942    2.0320    0.0000 C   0  0  0  0  0  0  0  0  0  0  0  0
    9.7942    3.0529    0.0000 C   0  0  0  0  0  0  0  0  0  0  0  0
   11.5942    3.0737    0.0000 C   0  0  0  0  0  0  0  0  0  0  0  0
    8.9282    1.5529    0.0000 C   0  0  0  0  0  0  0  0  0  0  0  0
   10.6882    3.5875    0.0000 C   0  0  0  0  0  0  0  0  0  0  0  0
    8.0622    3.0529    0.0000 C   0  0  0  0  0  0  0  0  0  0  0  0
    7.1962    3.5529    0.0000 C   0  0  0  0  0  0  0  0  0  0  0  0
    5.4641    3.5529    0.0000 C   0  0  0  0  0  0  0  0  0  0  0  0
    4.5981    3.0529    0.0000 C   0  0  0  0  0  0  0  0  0  0  0  0
    3.7320    3.5529    0.0000 C   0  0  0  0  0  0  0  0  0  0  0  0
    4.5981    2.0529    0.0000 C   0  0  0  0  0  0  0  0  0  0  0  0
    2.8660    3.0529    0.0000 C   0  0  0  0  0  0  0  0  0  0  0  0
    3.7320    1.5529    0.0000 C   0  0  0  0  0  0  0  0  0  0  0  0
    2.8660    2.0529    0.0000 C   0  0  0  0  0  0  0  0  0  0  0  0
  1 11  1  0  0  0  0 
  1 12  1  0  0  0  0 
  2 15  1  0  0  0  0 
  2 19  1  0  0  0  0 
  3 17  1  0  0  0  0 
  3 19  1  0  0  0  0 
  4 20  1  0  0  0  0 
  4 21  1  0  0  0  0 
  5  6  1  0  0  0  0 
  5  7  1  0  0  0  0 
  5 10  1  0  0  0  0 
  6  8  1  0  0  0  0 
  7  9  1  0  0  0  0 
  8  9  1  0  0  0  0 
 10 11  1  0  0  0  0 
 12 13  1  0  0  0  0 
 12 14  1  0  0  0  0 
 13 15  1  0  0  0  0 
 13 17  1  0  0  0  0 
 14 16  1  0  0  0  0 
 15 18  1  0  0  0  0 
 16 18  1  0  0  0  0 
 19 20  1  0  0  0  0 
 21 22  1  0  0  0  0 
 22 23  1  0  0  0  0 
 22 24  1  0  0  0  0 
 23 25  1  0  0  0  0 
 24 26  1  0  0  0  0 
 25 27  1  0  0  0  0 
 26 27  1  0  0  0  0 
M  END
> <PUBCHEM_COMPOUND_CID>
66851793

$$$$

  CDK     0224152114

 27 30  0  0  0  0  0  0  0  0999 V2000
    2.0000   -5.2500    0.0000 O   0  0  0  0  0  0  0  0  0  0  0  0
    3.7320   -4.2500    0.0000 N   0  0  0  0  0  0  0  0  0  0  0  0
    5.4641   -4.2500    0.0000 N   0  0  0  0  0  0  0  0  0  0  0  0
    6.3301   -3.7500    0.0000 N   0  0  0  0  0  0  0  0  0  0  0  0
    9.7942   -0.7500    0.0000 N   0  0  0  0  0  0  0  0  0  0  0  0
   10.6603    0.7500    0.0000 N   0  0  0  0  0  0  0  0  0  0  0  0
    2.8660   -3.7500    0.0000 C   0  0  0  0  0  0  0  0  0  0  0  0
    3.7320   -5.2500    0.0000 C   0  0  0  0  0  0  0  0  0  0  0  0
    2.0000   -4.2500    0.0000 C   0  0  0  0  0  0  0  0  0  0  0  0
    2.8660   -5.7500    0.0000 C   0  0  0  0  0  0  0  0  0  0  0  0
    4.5981   -3.7500    0.0000 C   0  0  0  0  0  0  0  0  0  0  0  0
    4.5981   -2.7500    0.0000 C   0  0  0  0  0  0  0  0  0  0  0  0
    6.3301   -2.7500    0.0000 C   0  0  0  0  0  0  0  0  0  0  0  0
    5.4641   -2.2500    0.0000 C   0  0  0  0  0  0  0  0  0  0  0  0
    7.1962   -2.2500    0.0000 C   0  0  0  0  0  0  0  0  0  0  0  0
    7.1962   -1.2500    0.0000 C   0  0  0  0  0  0  0  0  0  0  0  0
    8.0622   -2.7500    0.0000 C   0  0  0  0  0  0  0  0  0  0  0  0
    8.9282   -1.2500    0.0000 C   0  0  0  0  0  0  0  0  0  0  0  0
    8.0622   -0.7500    0.0000 C   0  0  0  0  0  0  0  0  0  0  0  0
    8.9282   -2.2500    0.0000 C   0  0  0  0  0  0  0  0  0  0  0  0
   10.6603    1.7500    0.0000 C   0  0  0  0  0  0  0  0  0  0  0  0
   10.6603    3.7500    0.0000 C   0  0  0  0  0  0  0  0  0  0  0  0
    9.7942    0.2500    0.0000 C   0  0  0  0  0  0  0  0  0  0  0  0
   11.5263    2.2500    0.0000 C   0  0  0  0  0  0  0  0  0  0  0  0
    9.7942    2.2500    0.0000 C   0  0  0  0  0  0  0  0  0  0  0  0
   11.5263    3.2500    0.0000 C   0  0  0  0  0  0  0  0  0  0  0  0
    9.7942    3.2500    0.0000 C   0  0  0  0  0  0  0  0  0  0  0  0
  1  9  1  0  0  0  0 
  1 10  1  0  0  0  0 
  2  7  1  0  0  0  0 
  2  8  1  0  0  0  0 
  2 11  1  0  0  0  0 
  3  4  1  0  0  0  0 
  3 11  1  0  0  0  0 
  4 13  1  0  0  0  0 
  5 18  1  0  0  0  0 
  5 23  1  0  0  0  0 
  6 21  1  0  0  0  0 
  6 23  1  0  0  0  0 
  7  9  1  0  0  0  0 
  8 10  1  0  0  0  0 
 11 12  1  0  0  0  0 
 12 14  1  0  0  0  0 
 13 14  1  0  0  0  0 
 13 15  1  0  0  0  0 
 15 16  1  0  0  0  0 
 15 17  1  0  0  0  0 
 16 19  1  0  0  0  0 
 17 20  1  0  0  0  0 
 18 19  1  0  0  0  0 
 18 20  1  0  0  0  0 
 21 24  1  0  0  0  0 
 21 25  1  0  0  0  0 
 22 26  1  0  0  0  0 
 22 27  1  0  0  0  0 
 24 26  1  0  0  0  0 
 25 27  1  0  0  0  0 
M  END
> <PUBCHEM_COMPOUND_CID>
43992851

$$$$
