11539831
  CDK     0926142134

 51 55  0  0  0  0  0  0  0  0999 V2000
    4.3576    3.2993    0.0000 I   0  0  0  0  0  0  0  0  0  0  0  0
   11.2517   -2.1468    0.0000 O   0  0  0  0  0  0  0  0  0  0  0  0
    2.5381    2.2675    0.0000 O   0  0  0  0  0  0  0  0  0  0  0  0
    7.0120   -1.3769    0.0000 C   0  0  2  0  0  0  0  0  0  0  0  0
    7.8781   -0.8769    0.0000 C   0  0  2  0  0  0  0  0  0  0  0  0
    6.1460   -0.8769    0.0000 C   0  0  1  0  0  0  0  0  0  0  0  0
    6.1460    0.1231    0.0000 C   0  0  2  0  0  0  0  0  0  0  0  0
    7.8781    0.1231    0.0000 C   0  0  0  0  0  0  0  0  0  0  0  0
    7.0120    0.6231    0.0000 C   0  0  0  0  0  0  0  0  0  0  0  0
    7.2212   -2.3487    0.0000 C   0  0  0  0  0  0  0  0  0  0  0  0
    8.6151   -1.5440    0.0000 C   0  0  0  0  0  0  0  0  0  0  0  0
    5.2521   -1.4116    0.0000 C   0  0  0  0  0  0  0  0  0  0  0  0
    8.2100   -2.4518    0.0000 C   0  0  0  0  0  0  0  0  0  0  0  0
    8.7441   -0.3769    0.0000 C   0  0  0  0  0  0  0  0  0  0  0  0
    5.2521    0.6577    0.0000 C   0  0  0  0  0  0  0  0  0  0  0  0
    4.3460   -0.8977    0.0000 C   0  0  0  0  0  0  0  0  0  0  0  0
    4.3460    0.1439    0.0000 C   0  0  0  0  0  0  0  0  0  0  0  0
    9.6432   -1.4208    0.0000 C   0  0  0  0  0  0  0  0  0  0  0  0
    8.8049   -3.2993    0.0000 C   0  0  0  0  0  0  0  0  0  0  0  0
    5.2772    1.7424    0.0000 C   0  0  0  0  0  0  0  0  0  0  0  0
    3.4022    0.6791    0.0000 C   0  0  0  0  0  0  0  0  0  0  0  0
   10.2575   -2.2543    0.0000 C   0  0  0  0  0  0  0  0  0  0  0  0
    9.8356   -3.1999    0.0000 C   0  0  0  0  0  0  0  0  0  0  0  0
    4.3460    2.2994    0.0000 C   0  0  0  0  0  0  0  0  0  0  0  0
    3.4022    1.7641    0.0000 C   0  0  0  0  0  0  0  0  0  0  0  0
   11.8419   -2.9541    0.0000 C   0  0  0  0  0  0  0  0  0  0  0  0
    6.3250   -1.8774    0.0000 H   0  0  0  0  0  0  0  0  0  0  0  0
    6.1526   -1.7269    0.0000 H   0  0  0  0  0  0  0  0  0  0  0  0
    6.8821   -0.3019    0.0000 H   0  0  0  0  0  0  0  0  0  0  0  0
    8.4886    0.0154    0.0000 H   0  0  0  0  0  0  0  0  0  0  0  0
    8.0901    0.7057    0.0000 H   0  0  0  0  0  0  0  0  0  0  0  0
    7.4106    1.0980    0.0000 H   0  0  0  0  0  0  0  0  0  0  0  0
    6.6135    1.0980    0.0000 H   0  0  0  0  0  0  0  0  0  0  0  0
    6.6048   -2.4148    0.0000 H   0  0  0  0  0  0  0  0  0  0  0  0
    7.2221   -2.9687    0.0000 H   0  0  0  0  0  0  0  0  0  0  0  0
    4.8585   -1.8906    0.0000 H   0  0  0  0  0  0  0  0  0  0  0  0
    5.6567   -1.8814    0.0000 H   0  0  0  0  0  0  0  0  0  0  0  0
    9.0541   -0.9139    0.0000 H   0  0  0  0  0  0  0  0  0  0  0  0
    9.2810   -0.0669    0.0000 H   0  0  0  0  0  0  0  0  0  0  0  0
    8.4341    0.1600    0.0000 H   0  0  0  0  0  0  0  0  0  0  0  0
    3.7352   -0.7916    0.0000 H   0  0  0  0  0  0  0  0  0  0  0  0
    4.1370   -1.4814    0.0000 H   0  0  0  0  0  0  0  0  0  0  0  0
    9.8893   -0.8517    0.0000 H   0  0  0  0  0  0  0  0  0  0  0  0
    8.5457   -3.8625    0.0000 H   0  0  0  0  0  0  0  0  0  0  0  0
    5.8200    2.0420    0.0000 H   0  0  0  0  0  0  0  0  0  0  0  0
    2.8665    0.3671    0.0000 H   0  0  0  0  0  0  0  0  0  0  0  0
   10.1976   -3.7032    0.0000 H   0  0  0  0  0  0  0  0  0  0  0  0
    2.0000    1.9595    0.0000 H   0  0  0  0  0  0  0  0  0  0  0  0
   11.3414   -3.3200    0.0000 H   0  0  0  0  0  0  0  0  0  0  0  0
   12.2079   -3.4546    0.0000 H   0  0  0  0  0  0  0  0  0  0  0  0
   12.3424   -2.5882    0.0000 H   0  0  0  0  0  0  0  0  0  0  0  0
  1 24  1  0  0  0  0 
  2 22  1  0  0  0  0 
  2 26  1  0  0  0  0 
  3 25  1  0  0  0  0 
  3 48  1  0  0  0  0 
  4  5  1  0  0  0  0 
  4  6  1  0  0  0  0 
  4 10  1  0  0  0  0 
  4 27  1  6  0  0  0 
  5  8  1  0  0  0  0 
  5 11  1  0  0  0  0 
  5 14  1  1  0  0  0 
  6  7  1  0  0  0  0 
  6 12  1  0  0  0  0 
  6 28  1  1  0  0  0 
  7  9  1  0  0  0  0 
  7 15  1  0  0  0  0 
  7 29  1  6  0  0  0 
  8  9  1  0  0  0  0 
  8 30  1  0  0  0  0 
  8 31  1  0  0  0  0 
  9 32  1  0  0  0  0 
  9 33  1  0  0  0  0 
 10 13  1  0  0  0  0 
 10 34  1  0  0  0  0 
 10 35  1  0  0  0  0 
 11 13  2  0  0  0  0 
 11 18  1  0  0  0  0 
 12 16  1  0  0  0  0 
 12 36  1  0  0  0  0 
 12 37  1  0  0  0  0 
 13 19  1  0  0  0  0 
 14 38  1  0  0  0  0 
 14 39  1  0  0  0  0 
 14 40  1  0  0  0  0 
 15 17  1  0  0  0  0 
 15 20  2  0  0  0  0 
 16 17  1  0  0  0  0 
 16 41  1  0  0  0  0 
 16 42  1  0  0  0  0 
 17 21  2  0  0  0  0 
 18 22  2  0  0  0  0 
 18 43  1  0  0  0  0 
 19 23  2  0  0  0  0 
 19 44  1  0  0  0  0 
 20 24  1  0  0  0  0 
 20 45  1  0  0  0  0 
 21 25  1  0  0  0  0 
 21 46  1  0  0  0  0 
 22 23  1  0  0  0  0 
 23 47  1  0  0  0  0 
 24 25  2  0  0  0  0 
 26 49  1  0  0  0  0 
 26 50  1  0  0  0  0 
 26 51  1  0  0  0  0 
M  ISO  1   1 125
M  END
> <cdk:Title>
11539831

> <cdk:Remark>
null

> <PUBCHEM_COMPOUND_CID>
11539831

> <PUBCHEM_COMPOUND_CANONICALIZED>
1

> <PUBCHEM_CACTVS_COMPLEXITY>
538

> <PUBCHEM_CACTVS_HBOND_ACCEPTOR>
2

> <PUBCHEM_CACTVS_HBOND_DONOR>
1

> <PUBCHEM_CACTVS_ROTATABLE_BOND>
1

> <PUBCHEM_CACTVS_SUBSKEYS>
AAADceB4MAAAAgAAAAAAAAAAAAAAAYAAAAAwYMGAAAAAAGDBQAAAGgAgCAAADwSCmAIyBoAABgCAAiBCAAACCAAgIAAIiAAGCIgMJiKGMRqAcCAkwBEIuAeAwPAPoAABAAAQAADAAAYAACAAAQAACAAAAA==

> <PUBCHEM_IUPAC_OPENEYE_NAME>
(4bS,6aS,11aS,11bS)-3-iodanyl-8-methoxy-6a-methyl-4b,5,6,11,11a,11b,12,13-octahydroindeno[2,1-a]phenanthren-2-ol

> <PUBCHEM_IUPAC_CAS_NAME>
(4bS,6aS,11aS,11bS)-3-iodanyl-8-methoxy-6a-methyl-4b,5,6,11,11a,11b,12,13-octahydroindeno[2,1-a]phenanthren-2-ol

> <PUBCHEM_IUPAC_NAME>
(4bS,6aS,11aS,11bS)-3-iodanyl-8-methoxy-6a-methyl-4b,5,6,11,11a,11b,12,13-octahydroindeno[2,1-a]phenanthren-2-ol

> <PUBCHEM_IUPAC_SYSTEMATIC_NAME>
(4bS,6aS,11aS,11bS)-3-iodanyl-8-methoxy-6a-methyl-4b,5,6,11,11a,11b,12,13-octahydroindeno[2,1-a]phenanthren-2-ol

> <PUBCHEM_IUPAC_TRADITIONAL_NAME>
(4bS,6aS,11aS,11bS)-3-iodanyl-8-methoxy-6a-methyl-4b,5,6,11,11a,11b,12,13-octahydroindeno[2,1-a]phenanthren-2-ol

> <PUBCHEM_IUPAC_INCHI>
InChI=1S/C23H25IO2/c1-23-8-7-16-17(6-4-13-10-22(25)21(24)12-18(13)16)20(23)9-14-3-5-15(26-2)11-19(14)23/h3,5,10-12,16-17,20,25H,4,6-9H2,1-2H3/t16-,17+,20-,23+/m0/s1/i24-2

> <PUBCHEM_IUPAC_INCHIKEY>
JWMCFMAOQXTBKX-VBNAFSSRSA-N

> <PUBCHEM_XLOGP3_AA>
6.5

> <PUBCHEM_EXACT_MASS>
458.090085

> <PUBCHEM_MOLECULAR_FORMULA>
C23H25IO2

> <PUBCHEM_MOLECULAR_WEIGHT>
458.34803

> <PUBCHEM_OPENEYE_CAN_SMILES>
CC12CCC3C(C1CC4=C2C=C(C=C4)OC)CCC5=CC(=C(C=C35)I)O

> <PUBCHEM_OPENEYE_ISO_SMILES>
C[C@]12CC[C@H]3[C@H]([C@@H]1CC4=C2C=C(C=C4)OC)CCC5=CC(=C(C=C35)[125I])O

> <PUBCHEM_CACTVS_TPSA>
29.5

> <PUBCHEM_MONOISOTOPIC_WEIGHT>
458.090085

> <PUBCHEM_TOTAL_CHARGE>
0

> <PUBCHEM_HEAVY_ATOM_COUNT>
26

> <PUBCHEM_ATOM_DEF_STEREO_COUNT>
4

> <PUBCHEM_ATOM_UDEF_STEREO_COUNT>
0

> <PUBCHEM_BOND_DEF_STEREO_COUNT>
0

> <PUBCHEM_BOND_UDEF_STEREO_COUNT>
0

> <PUBCHEM_ISOTOPIC_ATOM_COUNT>
1

> <PUBCHEM_COMPONENT_COUNT>
1

> <PUBCHEM_CACTVS_TAUTO_COUNT>
9

> <PUBCHEM_COORDINATE_TYPE>
1

> <PUBCHEM_BONDANNOTATIONS>
11  13  8

$$$$
