19709223
  CDK     0926142134

 45 47  0  0  0  0  0  0  0  0999 V2000
    8.9942    0.4585    0.0000 O   0  0  0  0  0  0  0  0  0  0  0  0
   14.1903    0.4385    0.0000 O   0  0  0  0  0  0  0  0  0  0  0  0
   11.5942    0.9485    0.0000 N   0  0  0  0  0  0  0  0  0  0  0  0
    5.4641   -0.5173    0.0000 N   0  0  0  0  0  0  0  0  0  0  0  0
    7.2241    0.4480    0.0000 N   0  0  0  0  0  0  0  0  0  0  0  0
    4.5981    0.9827    0.0000 N   0  0  0  0  0  0  0  0  0  0  0  0
    8.1301    2.0035    0.0000 N   0  0  0  0  0  0  0  0  0  0  0  0
    5.4641    2.4827    0.0000 N   0  0  0  0  0  0  0  0  0  0  0  0
   10.7263    0.4518    0.0000 C   0  0  0  0  0  0  0  0  0  0  0  0
    9.8622    0.9552    0.0000 C   0  0  0  0  0  0  0  0  0  0  0  0
   12.4583    0.4452    0.0000 C   0  0  0  0  0  0  0  0  0  0  0  0
    6.3301    0.9827    0.0000 C   0  0  0  0  0  0  0  0  0  0  0  0
    4.5981   -1.0173    0.0000 C   0  0  0  0  0  0  0  0  0  0  0  0
    5.4641    0.4827    0.0000 C   0  0  0  0  0  0  0  0  0  0  0  0
    6.3301    1.9827    0.0000 C   0  0  0  0  0  0  0  0  0  0  0  0
    3.7320   -0.5173    0.0000 C   0  0  0  0  0  0  0  0  0  0  0  0
    2.8660   -1.0173    0.0000 C   0  0  0  0  0  0  0  0  0  0  0  0
   13.3263    0.9418    0.0000 C   0  0  0  0  0  0  0  0  0  0  0  0
    8.1301    0.9619    0.0000 C   0  0  0  0  0  0  0  0  0  0  0  0
    4.5981   -2.0173    0.0000 C   0  0  0  0  0  0  0  0  0  0  0  0
    2.8660   -2.0173    0.0000 C   0  0  0  0  0  0  0  0  0  0  0  0
    3.7320   -2.5173    0.0000 C   0  0  0  0  0  0  0  0  0  0  0  0
    7.2241    2.5173    0.0000 C   0  0  0  0  0  0  0  0  0  0  0  0
    2.0000   -0.5173    0.0000 C   0  0  0  0  0  0  0  0  0  0  0  0
    4.5981    1.9827    0.0000 C   0  0  0  0  0  0  0  0  0  0  0  0
   10.3259   -0.0216    0.0000 H   0  0  0  0  0  0  0  0  0  0  0  0
   11.1230   -0.0246    0.0000 H   0  0  0  0  0  0  0  0  0  0  0  0
   10.2625    1.4286    0.0000 H   0  0  0  0  0  0  0  0  0  0  0  0
    9.4655    1.4317    0.0000 H   0  0  0  0  0  0  0  0  0  0  0  0
   11.5966    1.5685    0.0000 H   0  0  0  0  0  0  0  0  0  0  0  0
   12.0579   -0.0282    0.0000 H   0  0  0  0  0  0  0  0  0  0  0  0
   12.8550   -0.0313    0.0000 H   0  0  0  0  0  0  0  0  0  0  0  0
    6.0010   -0.8273    0.0000 H   0  0  0  0  0  0  0  0  0  0  0  0
    3.7320    0.1027    0.0000 H   0  0  0  0  0  0  0  0  0  0  0  0
   13.7266    1.4152    0.0000 H   0  0  0  0  0  0  0  0  0  0  0  0
   12.9296    1.4183    0.0000 H   0  0  0  0  0  0  0  0  0  0  0  0
    5.1350   -2.3273    0.0000 H   0  0  0  0  0  0  0  0  0  0  0  0
    2.3291   -2.3273    0.0000 H   0  0  0  0  0  0  0  0  0  0  0  0
    3.7320   -3.1373    0.0000 H   0  0  0  0  0  0  0  0  0  0  0  0
    7.2169    3.1373    0.0000 H   0  0  0  0  0  0  0  0  0  0  0  0
    2.3100    0.0196    0.0000 H   0  0  0  0  0  0  0  0  0  0  0  0
    1.4631   -0.2073    0.0000 H   0  0  0  0  0  0  0  0  0  0  0  0
    1.6900   -1.0543    0.0000 H   0  0  0  0  0  0  0  0  0  0  0  0
    4.0611    2.2927    0.0000 H   0  0  0  0  0  0  0  0  0  0  0  0
   14.7285    0.7464    0.0000 H   0  0  0  0  0  0  0  0  0  0  0  0
  1 10  1  0  0  0  0 
  1 19  1  0  0  0  0 
  2 18  1  0  0  0  0 
  2 45  1  0  0  0  0 
  3  9  1  0  0  0  0 
  3 11  1  0  0  0  0 
  3 30  1  0  0  0  0 
  4 13  1  0  0  0  0 
  4 14  1  0  0  0  0 
  4 33  1  0  0  0  0 
  5 12  2  0  0  0  0 
  5 19  1  0  0  0  0 
  6 14  2  0  0  0  0 
  6 25  1  0  0  0  0 
  7 19  2  0  0  0  0 
  7 23  1  0  0  0  0 
  8 15  1  0  0  0  0 
  8 25  2  0  0  0  0 
  9 10  1  0  0  0  0 
  9 26  1  0  0  0  0 
  9 27  1  0  0  0  0 
 10 28  1  0  0  0  0 
 10 29  1  0  0  0  0 
 11 18  1  0  0  0  0 
 11 31  1  0  0  0  0 
 11 32  1  0  0  0  0 
 12 14  1  0  0  0  0 
 12 15  1  0  0  0  0 
 13 16  1  0  0  0  0 
 13 20  2  0  0  0  0 
 15 23  2  0  0  0  0 
 16 17  2  0  0  0  0 
 16 34  1  0  0  0  0 
 17 21  1  0  0  0  0 
 17 24  1  0  0  0  0 
 18 35  1  0  0  0  0 
 18 36  1  0  0  0  0 
 20 22  1  0  0  0  0 
 20 37  1  0  0  0  0 
 21 22  2  0  0  0  0 
 21 38  1  0  0  0  0 
 22 39  1  0  0  0  0 
 23 40  1  0  0  0  0 
 24 41  1  0  0  0  0 
 24 42  1  0  0  0  0 
 24 43  1  0  0  0  0 
 25 44  1  0  0  0  0 
M  END
> <cdk:Title>
19709223

> <cdk:Remark>
null

> <PUBCHEM_COMPOUND_CID>
19709223

> <PUBCHEM_COMPOUND_CANONICALIZED>
1

> <PUBCHEM_CACTVS_COMPLEXITY>
388

> <PUBCHEM_CACTVS_HBOND_ACCEPTOR>
8

> <PUBCHEM_CACTVS_HBOND_DONOR>
3

> <PUBCHEM_CACTVS_ROTATABLE_BOND>
8

> <PUBCHEM_CACTVS_SUBSKEYS>
AAADceB7sAAAAAAAAAAAAAAAAAAAAAAAAAA8WIAAAAAAAACx/AAAHgAQCAAADAjhngY/8LbIFgCgAzZnZACCgC0xEqAJ2KA4dJiKeOLA2dGdJAhokALYyCcQgAAOAAAAQAAAAAAAAACAAAAAAAAAAAAAAA==

> <PUBCHEM_IUPAC_OPENEYE_NAME>
2-[2-[4-(3-methylanilino)pyrimido[5,4-d]pyrimidin-6-yl]oxyethylamino]ethanol

> <PUBCHEM_IUPAC_CAS_NAME>
2-[2-[[4-(3-methylanilino)-6-pyrimido[5,4-d]pyrimidinyl]oxy]ethylamino]ethanol

> <PUBCHEM_IUPAC_NAME>
2-[2-[4-(3-methylanilino)pyrimido[5,4-d]pyrimidin-6-yl]oxyethylamino]ethanol

> <PUBCHEM_IUPAC_SYSTEMATIC_NAME>
2-[2-[4-[(3-methylphenyl)amino]pyrimido[5,4-d]pyrimidin-6-yl]oxyethylamino]ethanol

> <PUBCHEM_IUPAC_TRADITIONAL_NAME>
2-[2-[4-(m-toluidino)pyrimido[5,4-d]pyrimidin-6-yl]oxyethylamino]ethanol

> <PUBCHEM_IUPAC_INCHI>
InChI=1S/C17H20N6O2/c1-12-3-2-4-13(9-12)22-16-15-14(20-11-21-16)10-19-17(23-15)25-8-6-18-5-7-24/h2-4,9-11,18,24H,5-8H2,1H3,(H,20,21,22)

> <PUBCHEM_IUPAC_INCHIKEY>
PHKVPKSKMNUMMC-UHFFFAOYSA-N

> <PUBCHEM_XLOGP3_AA>
1.3

> <PUBCHEM_EXACT_MASS>
340.164774

> <PUBCHEM_MOLECULAR_FORMULA>
C17H20N6O2

> <PUBCHEM_MOLECULAR_WEIGHT>
340.3797

> <PUBCHEM_OPENEYE_CAN_SMILES>
CC1=CC(=CC=C1)NC2=NC=NC3=CN=C(N=C32)OCCNCCO

> <PUBCHEM_OPENEYE_ISO_SMILES>
CC1=CC(=CC=C1)NC2=NC=NC3=CN=C(N=C32)OCCNCCO

> <PUBCHEM_CACTVS_TPSA>
105

> <PUBCHEM_MONOISOTOPIC_WEIGHT>
340.164774

> <PUBCHEM_TOTAL_CHARGE>
0

> <PUBCHEM_HEAVY_ATOM_COUNT>
25

> <PUBCHEM_ATOM_DEF_STEREO_COUNT>
0

> <PUBCHEM_ATOM_UDEF_STEREO_COUNT>
0

> <PUBCHEM_BOND_DEF_STEREO_COUNT>
0

> <PUBCHEM_BOND_UDEF_STEREO_COUNT>
0

> <PUBCHEM_ISOTOPIC_ATOM_COUNT>
0

> <PUBCHEM_COMPONENT_COUNT>
1

> <PUBCHEM_CACTVS_TAUTO_COUNT>
3

> <PUBCHEM_COORDINATE_TYPE>
1

> <PUBCHEM_BONDANNOTATIONS>
12  14  8

$$$$
