41655718
  CDK     0926142134

 66 70  0  0  0  0  0  0  0  0999 V2000
   13.3743   -2.9941    0.0000 O   0  0  0  0  0  0  0  0  0  0  0  0
   13.3743   -0.9248    0.0000 O   0  0  0  0  0  0  0  0  0  0  0  0
    9.2585   -0.0250    0.0000 O   0  0  0  0  0  0  0  0  0  0  0  0
    3.1590    4.5686    0.0000 O   0  0  0  0  0  0  0  0  0  0  0  0
    2.0000    3.2814    0.0000 O   0  0  0  0  0  0  0  0  0  0  0  0
    8.7233   -1.6723    0.0000 N   0  0  0  0  0  0  0  0  0  0  0  0
    4.5032    1.5201    0.0000 N   0  0  0  0  0  0  0  0  0  0  0  0
    5.1724    2.2632    0.0000 N   0  0  0  0  0  0  0  0  0  0  0  0
    2.9511    3.5905    0.0000 N   0  0  0  0  0  0  0  0  0  0  0  0
    9.8822   -2.9594    0.0000 C   0  0  0  0  0  0  0  0  0  0  0  0
    8.9041   -3.1674    0.0000 C   0  0  0  0  0  0  0  0  0  0  0  0
   10.3822   -3.8255    0.0000 C   0  0  0  0  0  0  0  0  0  0  0  0
    8.7996   -4.1619    0.0000 C   0  0  0  0  0  0  0  0  0  0  0  0
    9.7131   -4.5686    0.0000 C   0  0  0  0  0  0  0  0  0  0  0  0
    9.6743   -1.9813    0.0000 C   0  0  0  0  0  0  0  0  0  0  0  0
   10.7483   -2.4594    0.0000 C   0  0  0  0  0  0  0  0  0  0  0  0
   11.6143   -2.9594    0.0000 C   0  0  0  0  0  0  0  0  0  0  0  0
   10.7483   -1.4594    0.0000 C   0  0  0  0  0  0  0  0  0  0  0  0
   12.4803   -2.4594    0.0000 C   0  0  0  0  0  0  0  0  0  0  0  0
   11.6143   -0.9594    0.0000 C   0  0  0  0  0  0  0  0  0  0  0  0
   12.4803   -1.4594    0.0000 C   0  0  0  0  0  0  0  0  0  0  0  0
    8.5154   -0.6941    0.0000 C   0  0  0  0  0  0  0  0  0  0  0  0
    7.5643   -0.3851    0.0000 C   0  0  0  0  0  0  0  0  0  0  0  0
   14.2803   -2.4803    0.0000 C   0  0  0  0  0  0  0  0  0  0  0  0
   14.2803   -1.4386    0.0000 C   0  0  0  0  0  0  0  0  0  0  0  0
    7.3564    0.5930    0.0000 C   0  0  0  0  0  0  0  0  0  0  0  0
    6.8212   -1.0542    0.0000 C   0  0  0  0  0  0  0  0  0  0  0  0
    5.6622    0.2329    0.0000 C   0  0  0  0  0  0  0  0  0  0  0  0
    6.4053    0.9020    0.0000 C   0  0  0  0  0  0  0  0  0  0  0  0
    5.8701   -0.7452    0.0000 C   0  0  0  0  0  0  0  0  0  0  0  0
    4.7111    0.5419    0.0000 C   0  0  0  0  0  0  0  0  0  0  0  0
    3.5897    1.9268    0.0000 C   0  0  0  0  0  0  0  0  0  0  0  0
    3.6942    2.9213    0.0000 C   0  0  0  0  0  0  0  0  0  0  0  0
    4.6724    3.1292    0.0000 C   0  0  0  0  0  0  0  0  0  0  0  0
    2.7236    1.4268    0.0000 C   0  0  0  0  0  0  0  0  0  0  0  0
    5.0791    4.0428    0.0000 C   0  0  0  0  0  0  0  0  0  0  0  0
    8.8393   -2.5508    0.0000 H   0  0  0  0  0  0  0  0  0  0  0  0
    8.2841   -3.1674    0.0000 H   0  0  0  0  0  0  0  0  0  0  0  0
   10.7971   -4.2862    0.0000 H   0  0  0  0  0  0  0  0  0  0  0  0
   10.8838   -3.4610    0.0000 H   0  0  0  0  0  0  0  0  0  0  0  0
    8.1931   -4.0330    0.0000 H   0  0  0  0  0  0  0  0  0  0  0  0
    8.6080   -4.7515    0.0000 H   0  0  0  0  0  0  0  0  0  0  0  0
    9.4031   -5.1056    0.0000 H   0  0  0  0  0  0  0  0  0  0  0  0
   10.2147   -4.9330    0.0000 H   0  0  0  0  0  0  0  0  0  0  0  0
   10.2939   -1.9597    0.0000 H   0  0  0  0  0  0  0  0  0  0  0  0
    9.7606   -1.3673    0.0000 H   0  0  0  0  0  0  0  0  0  0  0  0
   11.6143   -3.5794    0.0000 H   0  0  0  0  0  0  0  0  0  0  0  0
    8.2625   -2.0871    0.0000 H   0  0  0  0  0  0  0  0  0  0  0  0
   10.2113   -1.1494    0.0000 H   0  0  0  0  0  0  0  0  0  0  0  0
   11.6143   -0.3394    0.0000 H   0  0  0  0  0  0  0  0  0  0  0  0
   14.4894   -3.0640    0.0000 H   0  0  0  0  0  0  0  0  0  0  0  0
   14.8912   -2.3742    0.0000 H   0  0  0  0  0  0  0  0  0  0  0  0
   14.8912   -1.5447    0.0000 H   0  0  0  0  0  0  0  0  0  0  0  0
   14.4894   -0.8549    0.0000 H   0  0  0  0  0  0  0  0  0  0  0  0
    7.8171    1.0079    0.0000 H   0  0  0  0  0  0  0  0  0  0  0  0
    6.9501   -1.6607    0.0000 H   0  0  0  0  0  0  0  0  0  0  0  0
    6.2764    1.5085    0.0000 H   0  0  0  0  0  0  0  0  0  0  0  0
    5.4094   -1.1601    0.0000 H   0  0  0  0  0  0  0  0  0  0  0  0
    4.0915    0.5203    0.0000 H   0  0  0  0  0  0  0  0  0  0  0  0
    4.6248   -0.0720    0.0000 H   0  0  0  0  0  0  0  0  0  0  0  0
    2.4136    1.9638    0.0000 H   0  0  0  0  0  0  0  0  0  0  0  0
    2.1867    1.1168    0.0000 H   0  0  0  0  0  0  0  0  0  0  0  0
    3.0336    0.8899    0.0000 H   0  0  0  0  0  0  0  0  0  0  0  0
    5.6455    3.7906    0.0000 H   0  0  0  0  0  0  0  0  0  0  0  0
    5.3313    4.6092    0.0000 H   0  0  0  0  0  0  0  0  0  0  0  0
    4.5127    4.2950    0.0000 H   0  0  0  0  0  0  0  0  0  0  0  0
  1 19  1  0  0  0  0 
  1 24  1  0  0  0  0 
  2 21  1  0  0  0  0 
  2 25  1  0  0  0  0 
  3 22  2  0  0  0  0 
  4  9  1  0  0  0  0 
  5  9  2  0  0  0  0 
  6 15  1  0  0  0  0 
  6 22  1  0  0  0  0 
  6 48  1  0  0  0  0 
  7  8  1  0  0  0  0 
  7 31  1  0  0  0  0 
  7 32  1  0  0  0  0 
  8 34  2  0  0  0  0 
  9 33  1  0  0  0  0 
 10 11  1  0  0  0  0 
 10 12  1  0  0  0  0 
 10 15  1  0  0  0  0 
 10 16  1  0  0  0  0 
 11 13  1  0  0  0  0 
 11 37  1  0  0  0  0 
 11 38  1  0  0  0  0 
 12 14  1  0  0  0  0 
 12 39  1  0  0  0  0 
 12 40  1  0  0  0  0 
 13 14  1  0  0  0  0 
 13 41  1  0  0  0  0 
 13 42  1  0  0  0  0 
 14 43  1  0  0  0  0 
 14 44  1  0  0  0  0 
 15 45  1  0  0  0  0 
 15 46  1  0  0  0  0 
 16 17  2  0  0  0  0 
 16 18  1  0  0  0  0 
 17 19  1  0  0  0  0 
 17 47  1  0  0  0  0 
 18 20  2  0  0  0  0 
 18 49  1  0  0  0  0 
 19 21  2  0  0  0  0 
 20 21  1  0  0  0  0 
 20 50  1  0  0  0  0 
 22 23  1  0  0  0  0 
 23 26  2  0  0  0  0 
 23 27  1  0  0  0  0 
 24 25  1  0  0  0  0 
 24 51  1  0  0  0  0 
 24 52  1  0  0  0  0 
 25 53  1  0  0  0  0 
 25 54  1  0  0  0  0 
 26 29  1  0  0  0  0 
 26 55  1  0  0  0  0 
 27 30  2  0  0  0  0 
 27 56  1  0  0  0  0 
 28 29  2  0  0  0  0 
 28 30  1  0  0  0  0 
 28 31  1  0  0  0  0 
 29 57  1  0  0  0  0 
 30 58  1  0  0  0  0 
 31 59  1  0  0  0  0 
 31 60  1  0  0  0  0 
 32 33  2  0  0  0  0 
 32 35  1  0  0  0  0 
 33 34  1  0  0  0  0 
 34 36  1  0  0  0  0 
 35 61  1  0  0  0  0 
 35 62  1  0  0  0  0 
 35 63  1  0  0  0  0 
 36 64  1  0  0  0  0 
 36 65  1  0  0  0  0 
 36 66  1  0  0  0  0 
M  CHG  1   4  -1
M  CHG  1   9   1
M  END
> <cdk:Title>
41655718

> <cdk:Remark>
null

> <PUBCHEM_COMPOUND_CID>
41655718

> <PUBCHEM_COMPOUND_CANONICALIZED>
1

> <PUBCHEM_CACTVS_COMPLEXITY>
777

> <PUBCHEM_CACTVS_HBOND_ACCEPTOR>
6

> <PUBCHEM_CACTVS_HBOND_DONOR>
1

> <PUBCHEM_CACTVS_ROTATABLE_BOND>
6

> <PUBCHEM_CACTVS_SUBSKEYS>
AAADceB7uAAAAAAAAAAAAAAAAAAAAeIAAAA0YIAAAAAAAACR0AAAHgAcAAAADgzhngYyxpLYRACrAyVyVwCSDAAlsAA42KE+3NoNZjLE9duWvSrkzpHK6YeY2PKP4AABAAAAQADAAAIAAACAAAAAAAAAAA==

> <PUBCHEM_IUPAC_OPENEYE_NAME>
N-[[1-(2,3-dihydro-1,4-benzodioxin-6-yl)cyclopentyl]methyl]-4-[(3,5-dimethyl-4-nitro-pyrazol-1-yl)methyl]benzamide

> <PUBCHEM_IUPAC_CAS_NAME>
N-[[1-(2,3-dihydro-1,4-benzodioxin-6-yl)cyclopentyl]methyl]-4-[(3,5-dimethyl-4-nitro-1-pyrazolyl)methyl]benzamide

> <PUBCHEM_IUPAC_NAME>
N-[[1-(2,3-dihydro-1,4-benzodioxin-6-yl)cyclopentyl]methyl]-4-[(3,5-dimethyl-4-nitropyrazol-1-yl)methyl]benzamide

> <PUBCHEM_IUPAC_SYSTEMATIC_NAME>
N-[[1-(2,3-dihydro-1,4-benzodioxin-6-yl)cyclopentyl]methyl]-4-[(3,5-dimethyl-4-nitro-pyrazol-1-yl)methyl]benzamide

> <PUBCHEM_IUPAC_TRADITIONAL_NAME>
N-[[1-(2,3-dihydro-1,4-benzodioxin-6-yl)cyclopentyl]methyl]-4-[(3,5-dimethyl-4-nitro-pyrazol-1-yl)methyl]benzamide

> <PUBCHEM_IUPAC_INCHI>
InChI=1S/C27H30N4O5/c1-18-25(31(33)34)19(2)30(29-18)16-20-5-7-21(8-6-20)26(32)28-17-27(11-3-4-12-27)22-9-10-23-24(15-22)36-14-13-35-23/h5-10,15H,3-4,11-14,16-17H2,1-2H3,(H,28,32)

> <PUBCHEM_IUPAC_INCHIKEY>
IRWQSVVKRLVBGF-UHFFFAOYSA-N

> <PUBCHEM_XLOGP3_AA>
4.8

> <PUBCHEM_EXACT_MASS>
490.22162

> <PUBCHEM_MOLECULAR_FORMULA>
C27H30N4O5

> <PUBCHEM_MOLECULAR_WEIGHT>
490.5509

> <PUBCHEM_OPENEYE_CAN_SMILES>
CC1=C(C(=NN1CC2=CC=C(C=C2)C(=O)NCC3(CCCC3)C4=CC5=C(C=C4)OCCO5)C)[N+](=O)[O-]

> <PUBCHEM_OPENEYE_ISO_SMILES>
CC1=C(C(=NN1CC2=CC=C(C=C2)C(=O)NCC3(CCCC3)C4=CC5=C(C=C4)OCCO5)C)[N+](=O)[O-]

> <PUBCHEM_CACTVS_TPSA>
111

> <PUBCHEM_MONOISOTOPIC_WEIGHT>
490.22162

> <PUBCHEM_TOTAL_CHARGE>
0

> <PUBCHEM_HEAVY_ATOM_COUNT>
36

> <PUBCHEM_ATOM_DEF_STEREO_COUNT>
0

> <PUBCHEM_ATOM_UDEF_STEREO_COUNT>
0

> <PUBCHEM_BOND_DEF_STEREO_COUNT>
0

> <PUBCHEM_BOND_UDEF_STEREO_COUNT>
0

> <PUBCHEM_ISOTOPIC_ATOM_COUNT>
0

> <PUBCHEM_COMPONENT_COUNT>
1

> <PUBCHEM_CACTVS_TAUTO_COUNT>
2

> <PUBCHEM_COORDINATE_TYPE>
1

> <PUBCHEM_BONDANNOTATIONS>
16  17  8

$$$$
