48826350
  CDK     0926142134

 50 53  0  0  0  0  0  0  0  0999 V2000
   10.5109   -1.8988    0.0000 Cl  0  0  0  0  0  0  0  0  0  0  0  0
    2.4612    0.4861    0.0000 O   0  0  0  0  0  0  0  0  0  0  0  0
   12.2708    1.1359    0.0000 O   0  0  0  0  0  0  0  0  0  0  0  0
   12.2708   -0.9334    0.0000 O   0  0  0  0  0  0  0  0  0  0  0  0
    3.5827   -0.8988    0.0000 N   0  0  0  0  0  0  0  0  0  0  0  0
    7.9128    0.6012    0.0000 N   0  0  0  0  0  0  0  0  0  0  0  0
    3.4782   -1.8933    0.0000 C   0  0  0  0  0  0  0  0  0  0  0  0
    2.5000   -2.1012    0.0000 C   0  0  0  0  0  0  0  0  0  0  0  0
    2.0000   -1.2352    0.0000 C   0  0  0  0  0  0  0  0  0  0  0  0
    2.6691   -0.4920    0.0000 C   0  0  0  0  0  0  0  0  0  0  0  0
    4.4487   -0.3988    0.0000 C   0  0  0  0  0  0  0  0  0  0  0  0
    7.0468    1.1012    0.0000 C   0  0  3  0  0  0  0  0  0  0  0  0
    6.1808    0.6012    0.0000 C   0  0  0  0  0  0  0  0  0  0  0  0
    5.3147   -0.8988    0.0000 C   0  0  0  0  0  0  0  0  0  0  0  0
    4.4487    0.6012    0.0000 C   0  0  0  0  0  0  0  0  0  0  0  0
    8.7788    1.1012    0.0000 C   0  0  0  0  0  0  0  0  0  0  0  0
    6.1808   -0.3988    0.0000 C   0  0  0  0  0  0  0  0  0  0  0  0
    5.3147    1.1012    0.0000 C   0  0  0  0  0  0  0  0  0  0  0  0
    7.0468    2.1012    0.0000 C   0  0  0  0  0  0  0  0  0  0  0  0
    9.6448    0.6012    0.0000 C   0  0  0  0  0  0  0  0  0  0  0  0
   10.5109    1.1012    0.0000 C   0  0  0  0  0  0  0  0  0  0  0  0
   11.3769    0.6012    0.0000 C   0  0  0  0  0  0  0  0  0  0  0  0
    9.6448   -0.3988    0.0000 C   0  0  0  0  0  0  0  0  0  0  0  0
   11.3769   -0.3988    0.0000 C   0  0  0  0  0  0  0  0  0  0  0  0
   10.5109   -0.8988    0.0000 C   0  0  0  0  0  0  0  0  0  0  0  0
   13.1769    0.6220    0.0000 C   0  0  0  0  0  0  0  0  0  0  0  0
   13.1769   -0.4196    0.0000 C   0  0  0  0  0  0  0  0  0  0  0  0
    3.5430   -2.5099    0.0000 H   0  0  0  0  0  0  0  0  0  0  0  0
    4.0982   -1.8933    0.0000 H   0  0  0  0  0  0  0  0  0  0  0  0
    1.9336   -2.3534    0.0000 H   0  0  0  0  0  0  0  0  0  0  0  0
    2.6916   -2.6909    0.0000 H   0  0  0  0  0  0  0  0  0  0  0  0
    1.5851   -0.7744    0.0000 H   0  0  0  0  0  0  0  0  0  0  0  0
    1.4984   -1.5996    0.0000 H   0  0  0  0  0  0  0  0  0  0  0  0
    7.0468    0.2512    0.0000 H   0  0  0  0  0  0  0  0  0  0  0  0
    7.9128   -0.0188    0.0000 H   0  0  0  0  0  0  0  0  0  0  0  0
    5.3147   -1.5188    0.0000 H   0  0  0  0  0  0  0  0  0  0  0  0
    3.9118    0.9112    0.0000 H   0  0  0  0  0  0  0  0  0  0  0  0
    9.1774    1.5762    0.0000 H   0  0  0  0  0  0  0  0  0  0  0  0
    8.3803    1.5762    0.0000 H   0  0  0  0  0  0  0  0  0  0  0  0
    6.7177   -0.7088    0.0000 H   0  0  0  0  0  0  0  0  0  0  0  0
    5.3147    1.7212    0.0000 H   0  0  0  0  0  0  0  0  0  0  0  0
    7.6668    2.1012    0.0000 H   0  0  0  0  0  0  0  0  0  0  0  0
    7.0468    2.7212    0.0000 H   0  0  0  0  0  0  0  0  0  0  0  0
    6.4268    2.1012    0.0000 H   0  0  0  0  0  0  0  0  0  0  0  0
   10.5109    1.7212    0.0000 H   0  0  0  0  0  0  0  0  0  0  0  0
    9.1079   -0.7088    0.0000 H   0  0  0  0  0  0  0  0  0  0  0  0
   13.7878    0.5159    0.0000 H   0  0  0  0  0  0  0  0  0  0  0  0
   13.3860    1.2057    0.0000 H   0  0  0  0  0  0  0  0  0  0  0  0
   13.3860   -1.0033    0.0000 H   0  0  0  0  0  0  0  0  0  0  0  0
   13.7878   -0.3135    0.0000 H   0  0  0  0  0  0  0  0  0  0  0  0
  1 25  1  0  0  0  0 
  2 10  2  0  0  0  0 
  3 22  1  0  0  0  0 
  3 26  1  0  0  0  0 
  4 24  1  0  0  0  0 
  4 27  1  0  0  0  0 
  5  7  1  0  0  0  0 
  5 10  1  0  0  0  0 
  5 11  1  0  0  0  0 
  6 12  1  0  0  0  0 
  6 16  1  0  0  0  0 
  6 35  1  0  0  0  0 
  7  8  1  0  0  0  0 
  7 28  1  0  0  0  0 
  7 29  1  0  0  0  0 
  8  9  1  0  0  0  0 
  8 30  1  0  0  0  0 
  8 31  1  0  0  0  0 
  9 10  1  0  0  0  0 
  9 32  1  0  0  0  0 
  9 33  1  0  0  0  0 
 11 14  2  0  0  0  0 
 11 15  1  0  0  0  0 
 12 13  1  0  0  0  0 
 12 19  1  0  0  0  0 
 12 34  1  0  0  0  0 
 13 17  2  0  0  0  0 
 13 18  1  0  0  0  0 
 14 17  1  0  0  0  0 
 14 36  1  0  0  0  0 
 15 18  2  0  0  0  0 
 15 37  1  0  0  0  0 
 16 20  1  0  0  0  0 
 16 38  1  0  0  0  0 
 16 39  1  0  0  0  0 
 17 40  1  0  0  0  0 
 18 41  1  0  0  0  0 
 19 42  1  0  0  0  0 
 19 43  1  0  0  0  0 
 19 44  1  0  0  0  0 
 20 21  2  0  0  0  0 
 20 23  1  0  0  0  0 
 21 22  1  0  0  0  0 
 21 45  1  0  0  0  0 
 22 24  2  0  0  0  0 
 23 25  2  0  0  0  0 
 23 46  1  0  0  0  0 
 24 25  1  0  0  0  0 
 26 27  1  0  0  0  0 
 26 47  1  0  0  0  0 
 26 48  1  0  0  0  0 
 27 49  1  0  0  0  0 
 27 50  1  0  0  0  0 
M  END
> <cdk:Title>
48826350

> <cdk:Remark>
null

> <PUBCHEM_COMPOUND_CID>
48826350

> <PUBCHEM_COMPOUND_CANONICALIZED>
1

> <PUBCHEM_CACTVS_COMPLEXITY>
512

> <PUBCHEM_CACTVS_HBOND_ACCEPTOR>
4

> <PUBCHEM_CACTVS_HBOND_DONOR>
1

> <PUBCHEM_CACTVS_ROTATABLE_BOND>
5

> <PUBCHEM_CACTVS_SUBSKEYS>
AAADceB7MAAEAAAAAAAAAAAAAAAAAWAAAAA0YIAAAAAAAACRQAAAHgIQAAAADC7hmCYyxoPABACIAiVSUACCCAAhJ0AIiIEO74gNJjPFs5uGOCrk1hHK6Ae00JIOKAABIQAASABQAAJCAACQAAAAAAAAAA==

> <PUBCHEM_IUPAC_OPENEYE_NAME>
1-[4-[1-[(5-chloro-2,3-dihydro-1,4-benzodioxin-7-yl)methylamino]ethyl]phenyl]pyrrolidin-2-one

> <PUBCHEM_IUPAC_CAS_NAME>
1-[4-[1-[(5-chloro-2,3-dihydro-1,4-benzodioxin-7-yl)methylamino]ethyl]phenyl]-2-pyrrolidinone

> <PUBCHEM_IUPAC_NAME>
1-[4-[1-[(5-chloro-2,3-dihydro-1,4-benzodioxin-7-yl)methylamino]ethyl]phenyl]pyrrolidin-2-one

> <PUBCHEM_IUPAC_SYSTEMATIC_NAME>
1-[4-[1-[(5-chloranyl-2,3-dihydro-1,4-benzodioxin-7-yl)methylamino]ethyl]phenyl]pyrrolidin-2-one

> <PUBCHEM_IUPAC_TRADITIONAL_NAME>
1-[4-[1-[(5-chloro-2,3-dihydro-1,4-benzodioxin-7-yl)methylamino]ethyl]phenyl]-2-pyrrolidone

> <PUBCHEM_IUPAC_INCHI>
InChI=1S/C21H23ClN2O3/c1-14(16-4-6-17(7-5-16)24-8-2-3-20(24)25)23-13-15-11-18(22)21-19(12-15)26-9-10-27-21/h4-7,11-12,14,23H,2-3,8-10,13H2,1H3

> <PUBCHEM_IUPAC_INCHIKEY>
IZLCNKCGJNPIAC-UHFFFAOYSA-N

> <PUBCHEM_XLOGP3_AA>
3

> <PUBCHEM_EXACT_MASS>
386.13972

> <PUBCHEM_MOLECULAR_FORMULA>
C21H23ClN2O3

> <PUBCHEM_MOLECULAR_WEIGHT>
386.87192

> <PUBCHEM_OPENEYE_CAN_SMILES>
CC(C1=CC=C(C=C1)N2CCCC2=O)NCC3=CC4=C(C(=C3)Cl)OCCO4

> <PUBCHEM_OPENEYE_ISO_SMILES>
CC(C1=CC=C(C=C1)N2CCCC2=O)NCC3=CC4=C(C(=C3)Cl)OCCO4

> <PUBCHEM_CACTVS_TPSA>
50.8

> <PUBCHEM_MONOISOTOPIC_WEIGHT>
386.13972

> <PUBCHEM_TOTAL_CHARGE>
0

> <PUBCHEM_HEAVY_ATOM_COUNT>
27

> <PUBCHEM_ATOM_DEF_STEREO_COUNT>
0

> <PUBCHEM_ATOM_UDEF_STEREO_COUNT>
1

> <PUBCHEM_BOND_DEF_STEREO_COUNT>
0

> <PUBCHEM_BOND_UDEF_STEREO_COUNT>
0

> <PUBCHEM_ISOTOPIC_ATOM_COUNT>
0

> <PUBCHEM_COMPONENT_COUNT>
1

> <PUBCHEM_CACTVS_TAUTO_COUNT>
2

> <PUBCHEM_COORDINATE_TYPE>
1

> <PUBCHEM_BONDANNOTATIONS>
11  14  8

$$$$
37551805
  CDK     0926142134

 47 50  0  0  0  0  0  0  0  0999 V2000
    8.7788    0.5839    0.0000 S   0  0  0  0  0  0  0  0  0  0  0  0
    8.2788    1.4499    0.0000 O   0  0  0  0  0  0  0  0  0  0  0  0
    9.2788   -0.2821    0.0000 O   0  0  0  0  0  0  0  0  0  0  0  0
   12.2708    2.6186    0.0000 O   0  0  0  0  0  0  0  0  0  0  0  0
   14.0410    2.6080    0.0000 O   0  0  0  0  0  0  0  0  0  0  0  0
    3.5827   -1.4161    0.0000 N   0  0  0  0  0  0  0  0  0  0  0  0
    7.9128    0.0839    0.0000 N   0  0  0  0  0  0  0  0  0  0  0  0
    2.0000   -1.7525    0.0000 C   0  0  0  0  0  0  0  0  0  0  0  0
    2.5000   -2.6186    0.0000 C   0  0  0  0  0  0  0  0  0  0  0  0
    2.6691   -1.0094    0.0000 C   0  0  0  0  0  0  0  0  0  0  0  0
    3.4782   -2.4106    0.0000 C   0  0  0  0  0  0  0  0  0  0  0  0
    4.4487   -0.9161    0.0000 C   0  0  0  0  0  0  0  0  0  0  0  0
    4.4487    0.0839    0.0000 C   0  0  0  0  0  0  0  0  0  0  0  0
    5.3147   -1.4161    0.0000 C   0  0  0  0  0  0  0  0  0  0  0  0
    6.1808    0.0839    0.0000 C   0  0  0  0  0  0  0  0  0  0  0  0
    5.3147    0.5839    0.0000 C   0  0  0  0  0  0  0  0  0  0  0  0
    6.1808   -0.9161    0.0000 C   0  0  0  0  0  0  0  0  0  0  0  0
    7.0468    0.5839    0.0000 C   0  0  0  0  0  0  0  0  0  0  0  0
    9.6449    1.0839    0.0000 C   0  0  0  0  0  0  0  0  0  0  0  0
   10.5109    0.5839    0.0000 C   0  0  0  0  0  0  0  0  0  0  0  0
   11.3769    1.0839    0.0000 C   0  0  0  0  0  0  0  0  0  0  0  0
    9.6449    2.0839    0.0000 C   0  0  0  0  0  0  0  0  0  0  0  0
   11.3769    2.0839    0.0000 C   0  0  0  0  0  0  0  0  0  0  0  0
   10.5109    2.5839    0.0000 C   0  0  0  0  0  0  0  0  0  0  0  0
   12.2708    0.5492    0.0000 C   0  0  0  0  0  0  0  0  0  0  0  0
   13.1769    1.0631    0.0000 C   0  0  0  0  0  0  0  0  0  0  0  0
   13.1769    2.1047    0.0000 C   0  0  0  0  0  0  0  0  0  0  0  0
    1.5851   -1.2918    0.0000 H   0  0  0  0  0  0  0  0  0  0  0  0
    1.4984   -2.1170    0.0000 H   0  0  0  0  0  0  0  0  0  0  0  0
    1.9336   -2.8707    0.0000 H   0  0  0  0  0  0  0  0  0  0  0  0
    2.6916   -3.2082    0.0000 H   0  0  0  0  0  0  0  0  0  0  0  0
    2.9791   -0.4724    0.0000 H   0  0  0  0  0  0  0  0  0  0  0  0
    2.1675   -0.6450    0.0000 H   0  0  0  0  0  0  0  0  0  0  0  0
    3.5430   -3.0272    0.0000 H   0  0  0  0  0  0  0  0  0  0  0  0
    4.0982   -2.4106    0.0000 H   0  0  0  0  0  0  0  0  0  0  0  0
    3.9118    0.3939    0.0000 H   0  0  0  0  0  0  0  0  0  0  0  0
    5.3147   -2.0361    0.0000 H   0  0  0  0  0  0  0  0  0  0  0  0
    5.3147    1.2039    0.0000 H   0  0  0  0  0  0  0  0  0  0  0  0
    6.7177   -1.2261    0.0000 H   0  0  0  0  0  0  0  0  0  0  0  0
    7.4453    1.0588    0.0000 H   0  0  0  0  0  0  0  0  0  0  0  0
    6.6483    1.0588    0.0000 H   0  0  0  0  0  0  0  0  0  0  0  0
    7.9128   -0.5361    0.0000 H   0  0  0  0  0  0  0  0  0  0  0  0
   10.5109   -0.0361    0.0000 H   0  0  0  0  0  0  0  0  0  0  0  0
    9.1079    2.3939    0.0000 H   0  0  0  0  0  0  0  0  0  0  0  0
   10.5109    3.2039    0.0000 H   0  0  0  0  0  0  0  0  0  0  0  0
   12.2637   -0.0707    0.0000 H   0  0  0  0  0  0  0  0  0  0  0  0
   13.7127    0.7510    0.0000 H   0  0  0  0  0  0  0  0  0  0  0  0
  1  2  2  0  0  0  0 
  1  3  2  0  0  0  0 
  1  7  1  0  0  0  0 
  1 19  1  0  0  0  0 
  4 23  1  0  0  0  0 
  4 27  1  0  0  0  0 
  5 27  2  0  0  0  0 
  6 10  1  0  0  0  0 
  6 11  1  0  0  0  0 
  6 12  1  0  0  0  0 
  7 18  1  0  0  0  0 
  7 42  1  0  0  0  0 
  8  9  1  0  0  0  0 
  8 10  1  0  0  0  0 
  8 28  1  0  0  0  0 
  8 29  1  0  0  0  0 
  9 11  1  0  0  0  0 
  9 30  1  0  0  0  0 
  9 31  1  0  0  0  0 
 10 32  1  0  0  0  0 
 10 33  1  0  0  0  0 
 11 34  1  0  0  0  0 
 11 35  1  0  0  0  0 
 12 13  2  0  0  0  0 
 12 14  1  0  0  0  0 
 13 16  1  0  0  0  0 
 13 36  1  0  0  0  0 
 14 17  2  0  0  0  0 
 14 37  1  0  0  0  0 
 15 16  2  0  0  0  0 
 15 17  1  0  0  0  0 
 15 18  1  0  0  0  0 
 16 38  1  0  0  0  0 
 17 39  1  0  0  0  0 
 18 40  1  0  0  0  0 
 18 41  1  0  0  0  0 
 19 20  2  0  0  0  0 
 19 22  1  0  0  0  0 
 20 21  1  0  0  0  0 
 20 43  1  0  0  0  0 
 21 23  2  0  0  0  0 
 21 25  1  0  0  0  0 
 22 24  2  0  0  0  0 
 22 44  1  0  0  0  0 
 23 24  1  0  0  0  0 
 24 45  1  0  0  0  0 
 25 26  2  0  0  0  0 
 25 46  1  0  0  0  0 
 26 27  1  0  0  0  0 
 26 47  1  0  0  0  0 
M  END
> <cdk:Title>
37551805

> <cdk:Remark>
null

> <PUBCHEM_COMPOUND_CID>
37551805

> <PUBCHEM_COMPOUND_CANONICALIZED>
1

> <PUBCHEM_CACTVS_COMPLEXITY>
658

> <PUBCHEM_CACTVS_HBOND_ACCEPTOR>
6

> <PUBCHEM_CACTVS_HBOND_DONOR>
1

> <PUBCHEM_CACTVS_ROTATABLE_BOND>
5

> <PUBCHEM_CACTVS_SUBSKEYS>
AAADceB7OABAAAAAAAAAAAAAAAAAAWAAAAAwYIAAAAAAAACBQAAAHgQQQAAADAzB2AQwz4NABAKIAiTSSHDCCBAhIgAIiJgObMgMJiLEsZuGOijkwBHI6YeQwCAOCIAAgAAIAAARAAEAABAAAAAAAAAAAA==

> <PUBCHEM_IUPAC_OPENEYE_NAME>
2-oxo-N-[(4-pyrrolidin-1-ylphenyl)methyl]chromene-6-sulfonamide

> <PUBCHEM_IUPAC_CAS_NAME>
2-oxo-N-[[4-(1-pyrrolidinyl)phenyl]methyl]-1-benzopyran-6-sulfonamide

> <PUBCHEM_IUPAC_NAME>
2-oxo-N-[(4-pyrrolidin-1-ylphenyl)methyl]chromene-6-sulfonamide

> <PUBCHEM_IUPAC_SYSTEMATIC_NAME>
2-oxidanylidene-N-[(4-pyrrolidin-1-ylphenyl)methyl]chromene-6-sulfonamide

> <PUBCHEM_IUPAC_TRADITIONAL_NAME>
2-keto-N-(4-pyrrolidinobenzyl)chromene-6-sulfonamide

> <PUBCHEM_IUPAC_INCHI>
InChI=1S/C20H20N2O4S/c23-20-10-5-16-13-18(8-9-19(16)26-20)27(24,25)21-14-15-3-6-17(7-4-15)22-11-1-2-12-22/h3-10,13,21H,1-2,11-12,14H2

> <PUBCHEM_IUPAC_INCHIKEY>
SNJIRPIHLNXYDI-UHFFFAOYSA-N

> <PUBCHEM_XLOGP3_AA>
3

> <PUBCHEM_EXACT_MASS>
384.114378

> <PUBCHEM_MOLECULAR_FORMULA>
C20H20N2O4S

> <PUBCHEM_MOLECULAR_WEIGHT>
384.4488

> <PUBCHEM_OPENEYE_CAN_SMILES>
C1CCN(C1)C2=CC=C(C=C2)CNS(=O)(=O)C3=CC4=C(C=C3)OC(=O)C=C4

> <PUBCHEM_OPENEYE_ISO_SMILES>
C1CCN(C1)C2=CC=C(C=C2)CNS(=O)(=O)C3=CC4=C(C=C3)OC(=O)C=C4

> <PUBCHEM_CACTVS_TPSA>
84.1

> <PUBCHEM_MONOISOTOPIC_WEIGHT>
384.114378

> <PUBCHEM_TOTAL_CHARGE>
0

> <PUBCHEM_HEAVY_ATOM_COUNT>
27

> <PUBCHEM_ATOM_DEF_STEREO_COUNT>
0

> <PUBCHEM_ATOM_UDEF_STEREO_COUNT>
0

> <PUBCHEM_BOND_DEF_STEREO_COUNT>
0

> <PUBCHEM_BOND_UDEF_STEREO_COUNT>
0

> <PUBCHEM_ISOTOPIC_ATOM_COUNT>
0

> <PUBCHEM_COMPONENT_COUNT>
1

> <PUBCHEM_CACTVS_TAUTO_COUNT>
1

> <PUBCHEM_COORDINATE_TYPE>
1

> <PUBCHEM_BONDANNOTATIONS>
12  13  8

$$$$
