5733434
  CDK     0926142134

 54 57  0  0  0  0  0  0  0  0999 V2000
    7.4888    2.4283    0.0000 Cl  0  0  0  0  0  0  0  0  0  0  0  0
    6.6227    3.9283    0.0000 S   0  0  0  0  0  0  0  0  0  0  0  0
    5.7567    3.4283    0.0000 O   0  0  0  0  0  0  0  0  0  0  0  0
    3.3080   -1.4081    0.0000 O   0  0  0  0  0  0  0  0  0  0  0  0
    4.0246    2.4283    0.0000 O   0  0  0  0  0  0  0  0  0  0  0  0
    6.1227    4.7943    0.0000 O   0  0  0  0  0  0  0  0  0  0  0  0
    7.1227    3.0623    0.0000 O   0  0  0  0  0  0  0  0  0  0  0  0
    3.7692    0.3132    0.0000 O   0  0  0  0  0  0  0  0  0  0  0  0
    4.7861   -2.0662    0.0000 N   0  0  0  0  0  0  0  0  0  0  0  0
    7.4888    4.4283    0.0000 C   0  0  0  0  0  0  0  0  0  0  0  0
    5.7567    0.4283    0.0000 C   0  0  0  0  0  0  0  0  0  0  0  0
    5.7567    2.4283    0.0000 C   0  0  0  0  0  0  0  0  0  0  0  0
    4.8907    1.9283    0.0000 C   0  0  0  0  0  0  0  0  0  0  0  0
    4.8907    0.9283    0.0000 C   0  0  0  0  0  0  0  0  0  0  0  0
    6.6227    0.9283    0.0000 C   0  0  0  0  0  0  0  0  0  0  0  0
    6.6227    1.9283    0.0000 C   0  0  0  0  0  0  0  0  0  0  0  0
    5.7567   -0.5717    0.0000 C   0  0  0  0  0  0  0  0  0  0  0  0
    8.3548    3.9283    0.0000 C   0  0  0  0  0  0  0  0  0  0  0  0
    7.4888    5.4283    0.0000 C   0  0  0  0  0  0  0  0  0  0  0  0
    4.8907   -1.0717    0.0000 C   0  0  0  0  0  0  0  0  0  0  0  0
    3.4013   -3.1877    0.0000 C   0  0  0  0  0  0  0  0  0  0  0  0
    9.2208    5.4283    0.0000 C   0  0  0  0  0  0  0  0  0  0  0  0
    3.8080   -2.2741    0.0000 C   0  0  0  0  0  0  0  0  0  0  0  0
    9.2208    4.4283    0.0000 C   0  0  0  0  0  0  0  0  0  0  0  0
    8.3548    5.9283    0.0000 C   0  0  0  0  0  0  0  0  0  0  0  0
    2.5878   -5.0148    0.0000 C   0  0  0  0  0  0  0  0  0  0  0  0
    2.4067   -3.2922    0.0000 C   0  0  0  0  0  0  0  0  0  0  0  0
    3.9890   -3.9967    0.0000 C   0  0  0  0  0  0  0  0  0  0  0  0
    3.9771   -0.6650    0.0000 C   0  0  0  0  0  0  0  0  0  0  0  0
    2.0000   -4.2058    0.0000 C   0  0  0  0  0  0  0  0  0  0  0  0
    3.5823   -4.9102    0.0000 C   0  0  0  0  0  0  0  0  0  0  0  0
   10.0868    5.9283    0.0000 C   0  0  0  0  0  0  0  0  0  0  0  0
    2.1810   -5.9283    0.0000 C   0  0  0  0  0  0  0  0  0  0  0  0
    3.1586    1.9283    0.0000 C   0  0  0  0  0  0  0  0  0  0  0  0
    4.3537    0.6183    0.0000 H   0  0  0  0  0  0  0  0  0  0  0  0
    7.1597    0.6183    0.0000 H   0  0  0  0  0  0  0  0  0  0  0  0
    6.2936   -0.8817    0.0000 H   0  0  0  0  0  0  0  0  0  0  0  0
    8.3548    3.3083    0.0000 H   0  0  0  0  0  0  0  0  0  0  0  0
    6.9518    5.7383    0.0000 H   0  0  0  0  0  0  0  0  0  0  0  0
    9.7577    4.1183    0.0000 H   0  0  0  0  0  0  0  0  0  0  0  0
    8.3548    6.5483    0.0000 H   0  0  0  0  0  0  0  0  0  0  0  0
    2.0423   -2.7906    0.0000 H   0  0  0  0  0  0  0  0  0  0  0  0
    4.6056   -3.9319    0.0000 H   0  0  0  0  0  0  0  0  0  0  0  0
    1.3834   -4.2706    0.0000 H   0  0  0  0  0  0  0  0  0  0  0  0
    3.9467   -5.4118    0.0000 H   0  0  0  0  0  0  0  0  0  0  0  0
   10.3968    5.3914    0.0000 H   0  0  0  0  0  0  0  0  0  0  0  0
   10.6238    6.2383    0.0000 H   0  0  0  0  0  0  0  0  0  0  0  0
    9.7768    6.4652    0.0000 H   0  0  0  0  0  0  0  0  0  0  0  0
    1.6146   -5.6761    0.0000 H   0  0  0  0  0  0  0  0  0  0  0  0
    1.9289   -6.4947    0.0000 H   0  0  0  0  0  0  0  0  0  0  0  0
    2.7474   -6.1805    0.0000 H   0  0  0  0  0  0  0  0  0  0  0  0
    2.8486    2.4652    0.0000 H   0  0  0  0  0  0  0  0  0  0  0  0
    2.6217    1.6183    0.0000 H   0  0  0  0  0  0  0  0  0  0  0  0
    3.4686    1.3914    0.0000 H   0  0  0  0  0  0  0  0  0  0  0  0
  1 16  1  0  0  0  0 
  2  3  1  0  0  0  0 
  2  6  2  0  0  0  0 
  2  7  2  0  0  0  0 
  2 10  1  0  0  0  0 
  3 12  1  0  0  0  0 
  4 23  1  0  0  0  0 
  4 29  1  0  0  0  0 
  5 13  1  0  0  0  0 
  5 34  1  0  0  0  0 
  8 29  2  0  0  0  0 
  9 20  1  0  0  0  0 
  9 23  2  0  0  0  0 
 10 18  2  0  0  0  0 
 10 19  1  0  0  0  0 
 11 14  2  0  0  0  0 
 11 15  1  0  0  0  0 
 11 17  1  0  0  0  0 
 12 13  2  0  0  0  0 
 12 16  1  0  0  0  0 
 13 14  1  0  0  0  0 
 14 35  1  0  0  0  0 
 15 16  2  0  0  0  0 
 15 36  1  0  0  0  0 
 17 20  2  0  0  0  0 
 17 37  1  0  0  0  0 
 18 24  1  0  0  0  0 
 18 38  1  0  0  0  0 
 19 25  2  0  0  0  0 
 19 39  1  0  0  0  0 
 20 29  1  0  0  0  0 
 21 23  1  0  0  0  0 
 21 27  2  0  0  0  0 
 21 28  1  0  0  0  0 
 22 24  2  0  0  0  0 
 22 25  1  0  0  0  0 
 22 32  1  0  0  0  0 
 24 40  1  0  0  0  0 
 25 41  1  0  0  0  0 
 26 30  2  0  0  0  0 
 26 31  1  0  0  0  0 
 26 33  1  0  0  0  0 
 27 30  1  0  0  0  0 
 27 42  1  0  0  0  0 
 28 31  2  0  0  0  0 
 28 43  1  0  0  0  0 
 30 44  1  0  0  0  0 
 31 45  1  0  0  0  0 
 32 46  1  0  0  0  0 
 32 47  1  0  0  0  0 
 32 48  1  0  0  0  0 
 33 49  1  0  0  0  0 
 33 50  1  0  0  0  0 
 33 51  1  0  0  0  0 
 34 52  1  0  0  0  0 
 34 53  1  0  0  0  0 
 34 54  1  0  0  0  0 
M  END
> <cdk:Title>
5733434

> <cdk:Remark>
null

> <PUBCHEM_COMPOUND_CID>
5733434

> <PUBCHEM_COMPOUND_CANONICALIZED>
1

> <PUBCHEM_CACTVS_COMPLEXITY>
897

> <PUBCHEM_CACTVS_HBOND_ACCEPTOR>
7

> <PUBCHEM_CACTVS_HBOND_DONOR>
0

> <PUBCHEM_CACTVS_ROTATABLE_BOND>
6

> <PUBCHEM_CACTVS_SUBSKEYS>
AAADceB6OABEAAAAAAAAAAAAAAAAAQAAAAAwYMAAAAAAAAABUAAAHgYAAAAADA6B2CIyD4IABAKoAiTyTHBCCEAgJ0AIiBimi9gPJqKFMxqDMCIkwBEKqYeAwDAOcAABIQAASADgAAJCAACQAAAAAAAAAA==

> <PUBCHEM_IUPAC_OPENEYE_NAME>
[2-chloro-6-methoxy-4-[(E)-[5-oxo-2-(p-tolyl)oxazol-4-ylidene]methyl]phenyl] 4-methylbenzenesulfonate

> <PUBCHEM_IUPAC_CAS_NAME>
4-methylbenzenesulfonic acid [2-chloro-6-methoxy-4-[(E)-[2-(4-methylphenyl)-5-oxo-4-oxazolylidene]methyl]phenyl] ester

> <PUBCHEM_IUPAC_NAME>
[2-chloro-6-methoxy-4-[(E)-[2-(4-methylphenyl)-5-oxo-1,3-oxazol-4-ylidene]methyl]phenyl] 4-methylbenzenesulfonate

> <PUBCHEM_IUPAC_SYSTEMATIC_NAME>
[2-chloranyl-6-methoxy-4-[(E)-[2-(4-methylphenyl)-5-oxidanylidene-1,3-oxazol-4-ylidene]methyl]phenyl] 4-methylbenzenesulfonate

> <PUBCHEM_IUPAC_TRADITIONAL_NAME>
4-methylbenzenesulfonic acid [2-chloro-4-[(E)-[5-keto-2-(p-tolyl)-2-oxazolin-4-ylidene]methyl]-6-methoxy-phenyl] ester

> <PUBCHEM_IUPAC_INCHI>
InChI=1S/C25H20ClNO6S/c1-15-4-8-18(9-5-15)24-27-21(25(28)32-24)13-17-12-20(26)23(22(14-17)31-3)33-34(29,30)19-10-6-16(2)7-11-19/h4-14H,1-3H3/b21-13+

> <PUBCHEM_IUPAC_INCHIKEY>
PTEIMMXWRYVMQI-FYJGNVAPSA-N

> <PUBCHEM_XLOGP3_AA>
6

> <PUBCHEM_EXACT_MASS>
497.069986

> <PUBCHEM_MOLECULAR_FORMULA>
C25H20ClNO6S

> <PUBCHEM_MOLECULAR_WEIGHT>
497.9474

> <PUBCHEM_OPENEYE_CAN_SMILES>
CC1=CC=C(C=C1)C2=NC(=CC3=CC(=C(C(=C3)Cl)OS(=O)(=O)C4=CC=C(C=C4)C)OC)C(=O)O2

> <PUBCHEM_OPENEYE_ISO_SMILES>
CC1=CC=C(C=C1)C2=N/C(=C/C3=CC(=C(C(=C3)Cl)OS(=O)(=O)C4=CC=C(C=C4)C)OC)/C(=O)O2

> <PUBCHEM_CACTVS_TPSA>
99.6

> <PUBCHEM_MONOISOTOPIC_WEIGHT>
497.069986

> <PUBCHEM_TOTAL_CHARGE>
0

> <PUBCHEM_HEAVY_ATOM_COUNT>
34

> <PUBCHEM_ATOM_DEF_STEREO_COUNT>
0

> <PUBCHEM_ATOM_UDEF_STEREO_COUNT>
0

> <PUBCHEM_BOND_DEF_STEREO_COUNT>
1

> <PUBCHEM_BOND_UDEF_STEREO_COUNT>
0

> <PUBCHEM_ISOTOPIC_ATOM_COUNT>
0

> <PUBCHEM_COMPONENT_COUNT>
1

> <PUBCHEM_CACTVS_TAUTO_COUNT>
2

> <PUBCHEM_COORDINATE_TYPE>
1

> <PUBCHEM_BONDANNOTATIONS>
10  18  8

$$$$
