70334086
  CDK     0926142134

 65 67  0  0  0  0  0  0  0  0999 V2000
    4.4700   -0.6095    0.0000 S   0  0  0  0  0  0  0  0  0  0  0  0
    4.7488    1.1505    0.0000 S   0  0  0  0  0  0  0  0  0  0  0  0
    2.5664   -2.1510    0.0000 O   0  0  0  0  0  0  0  0  0  0  0  0
    5.2790   -1.1973    0.0000 O   0  0  0  0  0  0  0  0  0  0  0  0
    3.6610   -0.0217    0.0000 O   0  0  0  0  0  0  0  0  0  0  0  0
    2.6561   -3.4336    0.0000 O   0  0  0  0  0  0  0  0  0  0  0  0
    5.5578    4.7383    0.0000 N   0  0  0  0  0  0  0  0  0  0  0  0
    5.5578    2.7383    0.0000 N   0  0  0  0  0  0  0  0  0  0  0  0
    3.8822   -1.4186    0.0000 N   0  0  0  0  0  0  0  0  0  0  0  0
    4.2890   -2.3321    0.0000 C   0  0  2  0  0  0  0  0  0  0  0  0
    4.6957   -3.2456    0.0000 C   0  0  3  0  0  0  0  0  0  0  0  0
    6.4238    4.2383    0.0000 C   0  0  0  0  0  0  0  0  0  0  0  0
    4.6918    4.2383    0.0000 C   0  0  0  0  0  0  0  0  0  0  0  0
    6.4238    3.2383    0.0000 C   0  0  0  0  0  0  0  0  0  0  0  0
    4.6918    3.2383    0.0000 C   0  0  0  0  0  0  0  0  0  0  0  0
    5.2025   -1.9254    0.0000 C   0  0  0  0  0  0  0  0  0  0  0  0
    5.5578    5.7383    0.0000 C   0  0  0  0  0  0  0  0  0  0  0  0
    4.7655   -4.2432    0.0000 C   0  0  0  0  0  0  0  0  0  0  0  0
    5.5578    1.7383    0.0000 C   0  0  0  0  0  0  0  0  0  0  0  0
    5.6902   -3.3502    0.0000 C   0  0  0  0  0  0  0  0  0  0  0  0
    3.3754   -2.7388    0.0000 C   0  0  0  0  0  0  0  0  0  0  0  0
    5.0578    0.1995    0.0000 C   0  0  0  0  0  0  0  0  0  0  0  0
    6.0115   -2.5131    0.0000 C   0  0  0  0  0  0  0  0  0  0  0  0
    6.4238    6.2383    0.0000 C   0  0  0  0  0  0  0  0  0  0  0  0
    4.6918    6.2383    0.0000 C   0  0  0  0  0  0  0  0  0  0  0  0
    6.3668    1.1505    0.0000 C   0  0  0  0  0  0  0  0  0  0  0  0
    6.0578    0.1995    0.0000 C   0  0  0  0  0  0  0  0  0  0  0  0
    5.6643   -4.6815    0.0000 C   0  0  0  0  0  0  0  0  0  0  0  0
    3.9364   -4.8024    0.0000 C   0  0  0  0  0  0  0  0  0  0  0  0
    5.7341   -5.6791    0.0000 C   0  0  0  0  0  0  0  0  0  0  0  0
    4.0062   -5.8000    0.0000 C   0  0  0  0  0  0  0  0  0  0  0  0
    4.9050   -6.2383    0.0000 C   0  0  0  0  0  0  0  0  0  0  0  0
    5.0601   -2.7440    0.0000 H   0  0  0  0  0  0  0  0  0  0  0  0
    7.0344    4.1307    0.0000 H   0  0  0  0  0  0  0  0  0  0  0  0
    6.6359    4.8209    0.0000 H   0  0  0  0  0  0  0  0  0  0  0  0
    4.4797    4.8209    0.0000 H   0  0  0  0  0  0  0  0  0  0  0  0
    4.0812    4.1307    0.0000 H   0  0  0  0  0  0  0  0  0  0  0  0
    6.6359    2.6557    0.0000 H   0  0  0  0  0  0  0  0  0  0  0  0
    7.0344    3.3460    0.0000 H   0  0  0  0  0  0  0  0  0  0  0  0
    4.0812    3.3460    0.0000 H   0  0  0  0  0  0  0  0  0  0  0  0
    4.4797    2.6557    0.0000 H   0  0  0  0  0  0  0  0  0  0  0  0
    5.6485   -1.4947    0.0000 H   0  0  0  0  0  0  0  0  0  0  0  0
    4.8558   -1.4114    0.0000 H   0  0  0  0  0  0  0  0  0  0  0  0
    5.5578    6.3583    0.0000 H   0  0  0  0  0  0  0  0  0  0  0  0
    3.2656   -1.3537    0.0000 H   0  0  0  0  0  0  0  0  0  0  0  0
    5.6254   -3.9668    0.0000 H   0  0  0  0  0  0  0  0  0  0  0  0
    6.3068   -3.4150    0.0000 H   0  0  0  0  0  0  0  0  0  0  0  0
    5.7550   -2.7336    0.0000 H   0  0  0  0  0  0  0  0  0  0  0  0
    5.6471   -3.0147    0.0000 H   0  0  0  0  0  0  0  0  0  0  0  0
    6.5131   -2.8776    0.0000 H   0  0  0  0  0  0  0  0  0  0  0  0
    6.3759   -2.0116    0.0000 H   0  0  0  0  0  0  0  0  0  0  0  0
    6.7338    5.7014    0.0000 H   0  0  0  0  0  0  0  0  0  0  0  0
    6.9608    6.5483    0.0000 H   0  0  0  0  0  0  0  0  0  0  0  0
    6.1138    6.7753    0.0000 H   0  0  0  0  0  0  0  0  0  0  0  0
    5.0018    6.7753    0.0000 H   0  0  0  0  0  0  0  0  0  0  0  0
    4.1548    6.5483    0.0000 H   0  0  0  0  0  0  0  0  0  0  0  0
    4.3818    5.7014    0.0000 H   0  0  0  0  0  0  0  0  0  0  0  0
    6.9565    1.3421    0.0000 H   0  0  0  0  0  0  0  0  0  0  0  0
    6.4222   -0.3021    0.0000 H   0  0  0  0  0  0  0  0  0  0  0  0
    6.1783   -4.3348    0.0000 H   0  0  0  0  0  0  0  0  0  0  0  0
    3.3791   -4.5306    0.0000 H   0  0  0  0  0  0  0  0  0  0  0  0
    2.0000   -2.4032    0.0000 H   0  0  0  0  0  0  0  0  0  0  0  0
    6.2913   -5.9509    0.0000 H   0  0  0  0  0  0  0  0  0  0  0  0
    3.4922   -6.1467    0.0000 H   0  0  0  0  0  0  0  0  0  0  0  0
    4.9482   -6.8568    0.0000 H   0  0  0  0  0  0  0  0  0  0  0  0
  1  4  2  0  0  0  0 
  1  5  2  0  0  0  0 
  1  9  1  0  0  0  0 
  1 22  1  0  0  0  0 
  2 19  1  0  0  0  0 
  2 22  1  0  0  0  0 
  3 21  1  0  0  0  0 
  3 62  1  0  0  0  0 
  6 21  2  0  0  0  0 
  7 12  1  0  0  0  0 
  7 13  1  0  0  0  0 
  7 17  1  0  0  0  0 
  8 14  1  0  0  0  0 
  8 15  1  0  0  0  0 
  8 19  1  0  0  0  0 
 10  9  1  1  0  0  0 
  9 45  1  0  0  0  0 
 10 11  1  0  0  0  0 
 10 16  1  0  0  0  0 
 10 21  1  0  0  0  0 
 11 18  1  0  0  0  0 
 11 20  1  0  0  0  0 
 11 33  1  0  0  0  0 
 12 14  1  0  0  0  0 
 12 34  1  0  0  0  0 
 12 35  1  0  0  0  0 
 13 15  1  0  0  0  0 
 13 36  1  0  0  0  0 
 13 37  1  0  0  0  0 
 14 38  1  0  0  0  0 
 14 39  1  0  0  0  0 
 15 40  1  0  0  0  0 
 15 41  1  0  0  0  0 
 16 23  1  0  0  0  0 
 16 42  1  0  0  0  0 
 16 43  1  0  0  0  0 
 17 24  1  0  0  0  0 
 17 25  1  0  0  0  0 
 17 44  1  0  0  0  0 
 18 28  2  0  0  0  0 
 18 29  1  0  0  0  0 
 19 26  2  0  0  0  0 
 20 46  1  0  0  0  0 
 20 47  1  0  0  0  0 
 20 48  1  0  0  0  0 
 22 27  2  0  0  0  0 
 23 49  1  0  0  0  0 
 23 50  1  0  0  0  0 
 23 51  1  0  0  0  0 
 24 52  1  0  0  0  0 
 24 53  1  0  0  0  0 
 24 54  1  0  0  0  0 
 25 55  1  0  0  0  0 
 25 56  1  0  0  0  0 
 25 57  1  0  0  0  0 
 26 27  1  0  0  0  0 
 26 58  1  0  0  0  0 
 27 59  1  0  0  0  0 
 28 30  1  0  0  0  0 
 28 60  1  0  0  0  0 
 29 31  2  0  0  0  0 
 29 61  1  0  0  0  0 
 30 32  2  0  0  0  0 
 30 63  1  0  0  0  0 
 31 32  1  0  0  0  0 
 31 64  1  0  0  0  0 
 32 65  1  0  0  0  0 
M  END
> <cdk:Title>
70334086

> <cdk:Remark>
null

> <PUBCHEM_COMPOUND_CID>
70334086

> <PUBCHEM_COMPOUND_CANONICALIZED>
1

> <PUBCHEM_CACTVS_COMPLEXITY>
728

> <PUBCHEM_CACTVS_HBOND_ACCEPTOR>
8

> <PUBCHEM_CACTVS_HBOND_DONOR>
2

> <PUBCHEM_CACTVS_ROTATABLE_BOND>
9

> <PUBCHEM_CACTVS_SUBSKEYS>
AAADcfB7OABgAAAAAAAAAAAAAAAAASAAAAA8QAAAAAAAAAABwAAAHgQQSAAADajB2AQyiYNAAgqMAiDSSHDDAZBhChhIiBmIZIgKYDLgkZGUYAhkkADoyAeYyOCOgAAAAAAAAAAAAAAAAAAAAAAAAAAAAA==

> <PUBCHEM_IUPAC_OPENEYE_NAME>
(2S)-2-ethyl-2-[[5-(4-isopropylpiperazin-1-yl)-2-thienyl]sulfonylamino]-3-phenyl-butanoic acid

> <PUBCHEM_IUPAC_CAS_NAME>
(2S)-2-ethyl-3-phenyl-2-[[5-(4-propan-2-yl-1-piperazinyl)-2-thiophenyl]sulfonylamino]butanoic acid

> <PUBCHEM_IUPAC_NAME>
(2S)-2-ethyl-3-phenyl-2-[[5-(4-propan-2-ylpiperazin-1-yl)thiophen-2-yl]sulfonylamino]butanoic acid

> <PUBCHEM_IUPAC_SYSTEMATIC_NAME>
(2S)-2-ethyl-3-phenyl-2-[[5-(4-propan-2-ylpiperazin-1-yl)thiophen-2-yl]sulfonylamino]butanoic acid

> <PUBCHEM_IUPAC_TRADITIONAL_NAME>
(2S)-2-ethyl-2-[[5-(4-isopropylpiperazino)-2-thienyl]sulfonylamino]-3-phenyl-butyric acid

> <PUBCHEM_IUPAC_INCHI>
InChI=1S/C23H33N3O4S2/c1-5-23(22(27)28,18(4)19-9-7-6-8-10-19)24-32(29,30)21-12-11-20(31-21)26-15-13-25(14-16-26)17(2)3/h6-12,17-18,24H,5,13-16H2,1-4H3,(H,27,28)/t18?,23-/m0/s1

> <PUBCHEM_IUPAC_INCHIKEY>
FRWNVYHGNTZXQU-IMMUGOHXSA-N

> <PUBCHEM_XLOGP3_AA>
2.3

> <PUBCHEM_EXACT_MASS>
479.191249

> <PUBCHEM_MOLECULAR_FORMULA>
C23H33N3O4S2

> <PUBCHEM_MOLECULAR_WEIGHT>
479.65582

> <PUBCHEM_OPENEYE_CAN_SMILES>
CCC(C(C)C1=CC=CC=C1)(C(=O)O)NS(=O)(=O)C2=CC=C(S2)N3CCN(CC3)C(C)C

> <PUBCHEM_OPENEYE_ISO_SMILES>
CC[C@](C(C)C1=CC=CC=C1)(C(=O)O)NS(=O)(=O)C2=CC=C(S2)N3CCN(CC3)C(C)C

> <PUBCHEM_CACTVS_TPSA>
127

> <PUBCHEM_MONOISOTOPIC_WEIGHT>
479.191249

> <PUBCHEM_TOTAL_CHARGE>
0

> <PUBCHEM_HEAVY_ATOM_COUNT>
32

> <PUBCHEM_ATOM_DEF_STEREO_COUNT>
1

> <PUBCHEM_ATOM_UDEF_STEREO_COUNT>
1

> <PUBCHEM_BOND_DEF_STEREO_COUNT>
0

> <PUBCHEM_BOND_UDEF_STEREO_COUNT>
0

> <PUBCHEM_ISOTOPIC_ATOM_COUNT>
0

> <PUBCHEM_COMPONENT_COUNT>
1

> <PUBCHEM_CACTVS_TAUTO_COUNT>
1

> <PUBCHEM_COORDINATE_TYPE>
1

> <PUBCHEM_BONDANNOTATIONS>
11  20  3

$$$$
