890505
  CDK     0926142134

 38 40  0  0  0  0  0  0  0  0999 V2000
    7.1962   -1.7500    0.0000 S   0  0  0  0  0  0  0  0  0  0  0  0
    2.8660   -0.2500    0.0000 O   0  0  0  0  0  0  0  0  0  0  0  0
    5.4641   -1.7500    0.0000 N   0  0  0  0  0  0  0  0  0  0  0  0
    6.3301   -0.2500    0.0000 N   0  0  0  0  0  0  0  0  0  0  0  0
    4.5981   -1.2500    0.0000 C   0  0  2  0  0  0  0  0  0  0  0  0
    4.5981   -0.2500    0.0000 C   0  0  0  0  0  0  0  0  0  0  0  0
    5.4641    0.2500    0.0000 C   0  0  0  0  0  0  0  0  0  0  0  0
    3.7320   -1.7500    0.0000 C   0  0  0  0  0  0  0  0  0  0  0  0
    5.4641    1.2500    0.0000 C   0  0  0  0  0  0  0  0  0  0  0  0
    6.3301   -1.2500    0.0000 C   0  0  0  0  0  0  0  0  0  0  0  0
    3.7320    0.2500    0.0000 C   0  0  0  0  0  0  0  0  0  0  0  0
    2.8660   -1.2500    0.0000 C   0  0  0  0  0  0  0  0  0  0  0  0
    3.7320   -2.7500    0.0000 C   0  0  0  0  0  0  0  0  0  0  0  0
    6.3301    1.7500    0.0000 C   0  0  0  0  0  0  0  0  0  0  0  0
    4.5981    1.7500    0.0000 C   0  0  0  0  0  0  0  0  0  0  0  0
    3.7320    1.2500    0.0000 C   0  0  0  0  0  0  0  0  0  0  0  0
    2.0000   -1.7500    0.0000 C   0  0  0  0  0  0  0  0  0  0  0  0
    2.8660   -3.2500    0.0000 C   0  0  0  0  0  0  0  0  0  0  0  0
    2.0000   -2.7500    0.0000 C   0  0  0  0  0  0  0  0  0  0  0  0
    6.3301    2.7500    0.0000 C   0  0  0  0  0  0  0  0  0  0  0  0
    4.5981    2.7500    0.0000 C   0  0  0  0  0  0  0  0  0  0  0  0
    5.4641    3.2500    0.0000 C   0  0  0  0  0  0  0  0  0  0  0  0
    4.5981   -1.8700    0.0000 H   0  0  0  0  0  0  0  0  0  0  0  0
    5.4641   -2.3700    0.0000 H   0  0  0  0  0  0  0  0  0  0  0  0
    6.8671    0.0600    0.0000 H   0  0  0  0  0  0  0  0  0  0  0  0
    2.8660   -0.6300    0.0000 H   0  0  0  0  0  0  0  0  0  0  0  0
    4.2690   -3.0600    0.0000 H   0  0  0  0  0  0  0  0  0  0  0  0
    6.8671    1.4400    0.0000 H   0  0  0  0  0  0  0  0  0  0  0  0
    4.0611    1.4400    0.0000 H   0  0  0  0  0  0  0  0  0  0  0  0
    4.3520    1.2500    0.0000 H   0  0  0  0  0  0  0  0  0  0  0  0
    3.7320    1.8700    0.0000 H   0  0  0  0  0  0  0  0  0  0  0  0
    3.1120    1.2500    0.0000 H   0  0  0  0  0  0  0  0  0  0  0  0
    1.4631   -1.4400    0.0000 H   0  0  0  0  0  0  0  0  0  0  0  0
    2.8660   -3.8700    0.0000 H   0  0  0  0  0  0  0  0  0  0  0  0
    1.4631   -3.0600    0.0000 H   0  0  0  0  0  0  0  0  0  0  0  0
    6.8671    3.0600    0.0000 H   0  0  0  0  0  0  0  0  0  0  0  0
    4.0611    3.0600    0.0000 H   0  0  0  0  0  0  0  0  0  0  0  0
    5.4641    3.8700    0.0000 H   0  0  0  0  0  0  0  0  0  0  0  0
  1 10  2  0  0  0  0 
  2 11  2  0  0  0  0 
  3  5  1  0  0  0  0 
  3 10  1  0  0  0  0 
  3 24  1  0  0  0  0 
  4  7  1  0  0  0  0 
  4 10  1  0  0  0  0 
  4 25  1  0  0  0  0 
  5  6  1  0  0  0  0 
  5  8  1  1  0  0  0 
  5 23  1  0  0  0  0 
  6  7  2  0  0  0  0 
  6 11  1  0  0  0  0 
  7  9  1  0  0  0  0 
  8 12  2  0  0  0  0 
  8 13  1  0  0  0  0 
  9 14  2  0  0  0  0 
  9 15  1  0  0  0  0 
 11 16  1  0  0  0  0 
 12 17  1  0  0  0  0 
 12 26  1  0  0  0  0 
 13 18  2  0  0  0  0 
 13 27  1  0  0  0  0 
 14 20  1  0  0  0  0 
 14 28  1  0  0  0  0 
 15 21  2  0  0  0  0 
 15 29  1  0  0  0  0 
 16 30  1  0  0  0  0 
 16 31  1  0  0  0  0 
 16 32  1  0  0  0  0 
 17 19  2  0  0  0  0 
 17 33  1  0  0  0  0 
 18 19  1  0  0  0  0 
 18 34  1  0  0  0  0 
 19 35  1  0  0  0  0 
 20 22  2  0  0  0  0 
 20 36  1  0  0  0  0 
 21 22  1  0  0  0  0 
 21 37  1  0  0  0  0 
 22 38  1  0  0  0  0 
M  END
> <cdk:Title>
890505

> <cdk:Remark>
null

> <PUBCHEM_COMPOUND_CID>
890505

> <PUBCHEM_COMPOUND_CANONICALIZED>
1

> <PUBCHEM_CACTVS_COMPLEXITY>
474

> <PUBCHEM_CACTVS_HBOND_ACCEPTOR>
2

> <PUBCHEM_CACTVS_HBOND_DONOR>
2

> <PUBCHEM_CACTVS_ROTATABLE_BOND>
3

> <PUBCHEM_CACTVS_SUBSKEYS>
AAADceB7IABAAAAAAAAAAAAAAAAAAAAAAAAwYIAAAAAAAAABQAAAHgQQAAAADCzBmAQzAILAAACMAqRSQACCAAAgAAkIiIEIBMiIIDqAkRGEIAhogAIIiUcYiICOAAAAAAAAAAAAAAAAAAAAAAAAAAAAAA==

> <PUBCHEM_IUPAC_OPENEYE_NAME>
1-[(4S)-4,6-diphenyl-2-thioxo-3,4-dihydro-1H-pyrimidin-5-yl]ethanone

> <PUBCHEM_IUPAC_CAS_NAME>
1-[(4S)-4,6-diphenyl-2-sulfanylidene-3,4-dihydro-1H-pyrimidin-5-yl]ethanone

> <PUBCHEM_IUPAC_NAME>
1-[(4S)-4,6-diphenyl-2-sulfanylidene-3,4-dihydro-1H-pyrimidin-5-yl]ethanone

> <PUBCHEM_IUPAC_SYSTEMATIC_NAME>
1-[(4S)-4,6-diphenyl-2-sulfanylidene-3,4-dihydro-1H-pyrimidin-5-yl]ethanone

> <PUBCHEM_IUPAC_TRADITIONAL_NAME>
1-[(4S)-4,6-diphenyl-2-thioxo-3,4-dihydro-1H-pyrimidin-5-yl]ethanone

> <PUBCHEM_IUPAC_INCHI>
InChI=1S/C18H16N2OS/c1-12(21)15-16(13-8-4-2-5-9-13)19-18(22)20-17(15)14-10-6-3-7-11-14/h2-11,16H,1H3,(H2,19,20,22)/t16-/m0/s1

> <PUBCHEM_IUPAC_INCHIKEY>
WDIOQIJHJMDDRX-INIZCTEOSA-N

> <PUBCHEM_XLOGP3_AA>
2.7

> <PUBCHEM_EXACT_MASS>
308.098334

> <PUBCHEM_MOLECULAR_FORMULA>
C18H16N2OS

> <PUBCHEM_MOLECULAR_WEIGHT>
308.39744

> <PUBCHEM_OPENEYE_CAN_SMILES>
CC(=O)C1=C(NC(=S)NC1C2=CC=CC=C2)C3=CC=CC=C3

> <PUBCHEM_OPENEYE_ISO_SMILES>
CC(=O)C1=C(NC(=S)N[C@H]1C2=CC=CC=C2)C3=CC=CC=C3

> <PUBCHEM_CACTVS_TPSA>
73.2

> <PUBCHEM_MONOISOTOPIC_WEIGHT>
308.098334

> <PUBCHEM_TOTAL_CHARGE>
0

> <PUBCHEM_HEAVY_ATOM_COUNT>
22

> <PUBCHEM_ATOM_DEF_STEREO_COUNT>
1

> <PUBCHEM_ATOM_UDEF_STEREO_COUNT>
0

> <PUBCHEM_BOND_DEF_STEREO_COUNT>
0

> <PUBCHEM_BOND_UDEF_STEREO_COUNT>
0

> <PUBCHEM_ISOTOPIC_ATOM_COUNT>
0

> <PUBCHEM_COMPONENT_COUNT>
1

> <PUBCHEM_CACTVS_TAUTO_COUNT>
12

> <PUBCHEM_COORDINATE_TYPE>
1

> <PUBCHEM_BONDANNOTATIONS>
12  17  8

$$$$
