33307105
  CDK     0104151047

 42 43  0  0  0  0  0  0  0  0999 V2000
    9.1500   -5.4239    0.0000 Cl  0  0  0  0  0  0  0  0  0  0  0  0
    8.8712   -3.6639    0.0000 S   0  0  0  0  0  0  0  0  0  0  0  0
    2.8660    2.9239    0.0000 O   0  0  0  0  0  0  0  0  0  0  0  0
    5.4641   -0.5761    0.0000 O   0  0  0  0  0  0  0  0  0  0  0  0
    8.9282   -1.5761    0.0000 O   0  0  0  0  0  0  0  0  0  0  0  0
    6.3301    3.9239    0.0000 O   0  0  0  0  0  0  0  0  0  0  0  0
    6.3301    0.9239    0.0000 N   0  0  0  0  0  0  0  0  0  0  0  0
    4.5981    3.9239    0.0000 N   0  0  0  0  0  0  0  0  0  0  0  0
    7.1962   -0.5761    0.0000 C   0  0  0  0  0  0  0  0  0  0  0  0
    7.1962   -1.5761    0.0000 C   0  0  0  0  0  0  0  0  0  0  0  0
    5.4641    1.4239    0.0000 C   0  0  0  0  0  0  0  0  0  0  0  0
    6.3301   -0.0761    0.0000 C   0  0  0  0  0  0  0  0  0  0  0  0
    4.5981    2.9239    0.0000 C   0  0  0  0  0  0  0  0  0  0  0  0
    5.4641    2.4239    0.0000 C   0  0  0  0  0  0  0  0  0  0  0  0
    8.0622   -2.0761    0.0000 C   0  0  0  0  0  0  0  0  0  0  0  0
    3.7321    2.4239    0.0000 C   0  0  0  0  0  0  0  0  0  0  0  0
    4.5981    0.9239    0.0000 C   0  0  0  0  0  0  0  0  0  0  0  0
    3.7321    1.4239    0.0000 C   0  0  0  0  0  0  0  0  0  0  0  0
    8.0622   -3.0761    0.0000 C   0  0  0  0  0  0  0  0  0  0  0  0
    7.2532   -3.6639    0.0000 C   0  0  0  0  0  0  0  0  0  0  0  0
    5.4641    4.4239    0.0000 C   0  0  0  0  0  0  0  0  0  0  0  0
    7.5622   -4.6149    0.0000 C   0  0  0  0  0  0  0  0  0  0  0  0
    8.5622   -4.6149    0.0000 C   0  0  0  0  0  0  0  0  0  0  0  0
    2.0000    2.4239    0.0000 C   0  0  0  0  0  0  0  0  0  0  0  0
    5.4641    5.4239    0.0000 C   0  0  0  0  0  0  0  0  0  0  0  0
    7.8067   -0.6837    0.0000 H   0  0  0  0  0  0  0  0  0  0  0  0
    7.4082    0.0065    0.0000 H   0  0  0  0  0  0  0  0  0  0  0  0
    6.5856   -1.4684    0.0000 H   0  0  0  0  0  0  0  0  0  0  0  0
    6.9841   -2.1587    0.0000 H   0  0  0  0  0  0  0  0  0  0  0  0
    6.8671    1.2339    0.0000 H   0  0  0  0  0  0  0  0  0  0  0  0
    6.0010    2.7339    0.0000 H   0  0  0  0  0  0  0  0  0  0  0  0
    4.5981    0.3039    0.0000 H   0  0  0  0  0  0  0  0  0  0  0  0
    3.1951    1.1139    0.0000 H   0  0  0  0  0  0  0  0  0  0  0  0
    4.0611    4.2339    0.0000 H   0  0  0  0  0  0  0  0  0  0  0  0
    6.6635   -3.4723    0.0000 H   0  0  0  0  0  0  0  0  0  0  0  0
    7.1978   -5.1165    0.0000 H   0  0  0  0  0  0  0  0  0  0  0  0
    1.6900    2.9609    0.0000 H   0  0  0  0  0  0  0  0  0  0  0  0
    1.4631    2.1139    0.0000 H   0  0  0  0  0  0  0  0  0  0  0  0
    2.3100    1.8870    0.0000 H   0  0  0  0  0  0  0  0  0  0  0  0
    6.0841    5.4239    0.0000 H   0  0  0  0  0  0  0  0  0  0  0  0
    5.4641    6.0439    0.0000 H   0  0  0  0  0  0  0  0  0  0  0  0
    4.8441    5.4239    0.0000 H   0  0  0  0  0  0  0  0  0  0  0  0
  1 23  1  0  0  0  0 
  2 19  1  0  0  0  0 
  2 23  1  0  0  0  0 
  3 16  1  0  0  0  0 
  3 24  1  0  0  0  0 
  4 12  2  0  0  0  0 
  5 15  2  0  0  0  0 
  6 21  2  0  0  0  0 
  7 11  1  0  0  0  0 
  7 12  1  0  0  0  0 
  7 30  1  0  0  0  0 
  8 13  1  0  0  0  0 
  8 21  1  0  0  0  0 
  8 34  1  0  0  0  0 
  9 10  1  0  0  0  0 
  9 12  1  0  0  0  0 
  9 26  1  0  0  0  0 
  9 27  1  0  0  0  0 
 10 15  1  0  0  0  0 
 10 28  1  0  0  0  0 
 10 29  1  0  0  0  0 
 11 14  2  0  0  0  0 
 11 17  1  0  0  0  0 
 13 14  1  0  0  0  0 
 13 16  2  0  0  0  0 
 14 31  1  0  0  0  0 
 15 19  1  0  0  0  0 
 16 18  1  0  0  0  0 
 17 18  2  0  0  0  0 
 17 32  1  0  0  0  0 
 18 33  1  0  0  0  0 
 19 20  2  0  0  0  0 
 20 22  1  0  0  0  0 
 20 35  1  0  0  0  0 
 21 25  1  0  0  0  0 
 22 23  2  0  0  0  0 
 22 36  1  0  0  0  0 
 24 37  1  0  0  0  0 
 24 38  1  0  0  0  0 
 24 39  1  0  0  0  0 
 25 40  1  0  0  0  0 
 25 41  1  0  0  0  0 
 25 42  1  0  0  0  0 
M  END
> <cdk:Title>
33307105

> <cdk:Remark>
null

> <PUBCHEM_COMPOUND_CID>
33307105

> <PUBCHEM_COMPOUND_CANONICALIZED>
1

> <PUBCHEM_CACTVS_COMPLEXITY>
505

> <PUBCHEM_CACTVS_HBOND_ACCEPTOR>
5

> <PUBCHEM_CACTVS_HBOND_DONOR>
2

> <PUBCHEM_CACTVS_ROTATABLE_BOND>
7

> <PUBCHEM_CACTVS_SUBSKEYS>
AAADceB7OABEAAAAAAAAAAAAAAAAASAAAAAwAAAAAAAAAAABwAAAHgYQAAAACA6B0CIyx4LABAiMAKVSUACDCIAlLxBIiBkHbsgOJjLl99uFMShk1BH46Ye9yICAAEAAAAQAEAAAgAAACAAgAAAAAAAAAA==

> <PUBCHEM_IUPAC_OPENEYE_NAME>
N-(3-acetamido-4-methoxy-phenyl)-4-(5-chloro-2-thienyl)-4-oxo-butanamide

> <PUBCHEM_IUPAC_CAS_NAME>
N-(3-acetamido-4-methoxyphenyl)-4-(5-chloro-2-thiophenyl)-4-oxobutanamide

> <PUBCHEM_IUPAC_NAME>
N-(3-acetamido-4-methoxyphenyl)-4-(5-chlorothiophen-2-yl)-4-oxobutanamide

> <PUBCHEM_IUPAC_SYSTEMATIC_NAME>
N-(3-acetamido-4-methoxy-phenyl)-4-(5-chloranylthiophen-2-yl)-4-oxidanylidene-butanamide

> <PUBCHEM_IUPAC_TRADITIONAL_NAME>
N-(3-acetamido-4-methoxy-phenyl)-4-(5-chloro-2-thienyl)-4-keto-butyramide

> <PUBCHEM_IUPAC_INCHI>
InChI=1S/C17H17ClN2O4S/c1-10(21)19-12-9-11(3-5-14(12)24-2)20-17(23)8-4-13(22)15-6-7-16(18)25-15/h3,5-7,9H,4,8H2,1-2H3,(H,19,21)(H,20,23)

> <PUBCHEM_IUPAC_INCHIKEY>
BQQOEIBLKRUFHQ-UHFFFAOYSA-N

> <PUBCHEM_XLOGP3_AA>
2.5

> <PUBCHEM_EXACT_MASS>
380.059756

> <PUBCHEM_MOLECULAR_FORMULA>
C17H17ClN2O4S

> <PUBCHEM_MOLECULAR_WEIGHT>
380.84588

> <PUBCHEM_OPENEYE_CAN_SMILES>
CC(=O)NC1=C(C=CC(=C1)NC(=O)CCC(=O)C2=CC=C(S2)Cl)OC

> <PUBCHEM_OPENEYE_ISO_SMILES>
CC(=O)NC1=C(C=CC(=C1)NC(=O)CCC(=O)C2=CC=C(S2)Cl)OC

> <PUBCHEM_CACTVS_TPSA>
113

> <PUBCHEM_MONOISOTOPIC_WEIGHT>
380.059756

> <PUBCHEM_TOTAL_CHARGE>
0

> <PUBCHEM_HEAVY_ATOM_COUNT>
25

> <PUBCHEM_ATOM_DEF_STEREO_COUNT>
0

> <PUBCHEM_ATOM_UDEF_STEREO_COUNT>
0

> <PUBCHEM_BOND_DEF_STEREO_COUNT>
0

> <PUBCHEM_BOND_UDEF_STEREO_COUNT>
0

> <PUBCHEM_ISOTOPIC_ATOM_COUNT>
0

> <PUBCHEM_COMPONENT_COUNT>
1

> <PUBCHEM_CACTVS_TAUTO_COUNT>
8

> <PUBCHEM_COORDINATE_TYPE>
1

> <PUBCHEM_BONDANNOTATIONS>
11  14  8

$$$$
