21056172
  CDK     0104151102

 58 61  0  0  0  0  0  0  0  0999 V2000
    4.5981   -0.2500    0.0000 O   0  0  0  0  0  0  0  0  0  0  0  0
    3.7320   -1.7500    0.0000 N   0  0  0  0  0  0  0  0  0  0  0  0
    6.3301    0.7500    0.0000 C   0  0  0  0  0  0  0  0  0  0  0  0
    6.3301   -0.2500    0.0000 C   0  0  0  0  0  0  0  0  0  0  0  0
    6.3301    1.7500    0.0000 C   0  0  0  0  0  0  0  0  0  0  0  0
    7.3301    0.7500    0.0000 C   0  0  0  0  0  0  0  0  0  0  0  0
    5.3301    0.7500    0.0000 C   0  0  0  0  0  0  0  0  0  0  0  0
    7.1962   -0.7500    0.0000 C   0  0  0  0  0  0  0  0  0  0  0  0
    5.4641   -0.7500    0.0000 C   0  0  0  0  0  0  0  0  0  0  0  0
    7.1962   -1.7500    0.0000 C   0  0  0  0  0  0  0  0  0  0  0  0
    7.8301   -0.1160    0.0000 C   0  0  0  0  0  0  0  0  0  0  0  0
    7.1962    2.2500    0.0000 C   0  0  0  0  0  0  0  0  0  0  0  0
    7.8301    1.6160    0.0000 C   0  0  0  0  0  0  0  0  0  0  0  0
    5.4641    2.2500    0.0000 C   0  0  0  0  0  0  0  0  0  0  0  0
    5.4641   -1.7500    0.0000 C   0  0  0  0  0  0  0  0  0  0  0  0
    6.3301   -2.2500    0.0000 C   0  0  0  0  0  0  0  0  0  0  0  0
    8.0622   -2.2500    0.0000 C   0  0  0  0  0  0  0  0  0  0  0  0
    8.8301   -0.1160    0.0000 C   0  0  0  0  0  0  0  0  0  0  0  0
    7.1962    3.2500    0.0000 C   0  0  0  0  0  0  0  0  0  0  0  0
    8.8301    1.6160    0.0000 C   0  0  0  0  0  0  0  0  0  0  0  0
    5.4641    3.2500    0.0000 C   0  0  0  0  0  0  0  0  0  0  0  0
    4.5981   -2.2500    0.0000 C   0  0  0  0  0  0  0  0  0  0  0  0
    9.3301    0.7500    0.0000 C   0  0  0  0  0  0  0  0  0  0  0  0
    6.3301    3.7500    0.0000 C   0  0  0  0  0  0  0  0  0  0  0  0
    8.0622   -3.2500    0.0000 C   0  0  0  0  0  0  0  0  0  0  0  0
    8.9282   -1.7500    0.0000 C   0  0  0  0  0  0  0  0  0  0  0  0
    8.9282   -3.7500    0.0000 C   0  0  0  0  0  0  0  0  0  0  0  0
    9.7942   -2.2500    0.0000 C   0  0  0  0  0  0  0  0  0  0  0  0
    2.8660   -2.2500    0.0000 C   0  0  0  0  0  0  0  0  0  0  0  0
    9.7942   -3.2500    0.0000 C   0  0  0  0  0  0  0  0  0  0  0  0
    2.0000   -1.7500    0.0000 C   0  0  0  0  0  0  0  0  0  0  0  0
    5.3301    1.3700    0.0000 H   0  0  0  0  0  0  0  0  0  0  0  0
    4.7101    0.7500    0.0000 H   0  0  0  0  0  0  0  0  0  0  0  0
    5.3301    0.1300    0.0000 H   0  0  0  0  0  0  0  0  0  0  0  0
    7.7331   -0.4400    0.0000 H   0  0  0  0  0  0  0  0  0  0  0  0
    7.7331    1.9400    0.0000 H   0  0  0  0  0  0  0  0  0  0  0  0
    7.5201   -0.6530    0.0000 H   0  0  0  0  0  0  0  0  0  0  0  0
    4.9272    1.9400    0.0000 H   0  0  0  0  0  0  0  0  0  0  0  0
    7.5201    2.1530    0.0000 H   0  0  0  0  0  0  0  0  0  0  0  0
    6.3301   -2.8700    0.0000 H   0  0  0  0  0  0  0  0  0  0  0  0
    9.1401   -0.6530    0.0000 H   0  0  0  0  0  0  0  0  0  0  0  0
    7.7331    3.5600    0.0000 H   0  0  0  0  0  0  0  0  0  0  0  0
    9.1401    2.1530    0.0000 H   0  0  0  0  0  0  0  0  0  0  0  0
    4.9272    3.5600    0.0000 H   0  0  0  0  0  0  0  0  0  0  0  0
    4.5981   -2.8700    0.0000 H   0  0  0  0  0  0  0  0  0  0  0  0
    9.9501    0.7500    0.0000 H   0  0  0  0  0  0  0  0  0  0  0  0
    6.3301    4.3700    0.0000 H   0  0  0  0  0  0  0  0  0  0  0  0
    7.5252   -3.5600    0.0000 H   0  0  0  0  0  0  0  0  0  0  0  0
    8.9282   -1.1300    0.0000 H   0  0  0  0  0  0  0  0  0  0  0  0
    3.7320   -1.1300    0.0000 H   0  0  0  0  0  0  0  0  0  0  0  0
    8.9282   -4.3700    0.0000 H   0  0  0  0  0  0  0  0  0  0  0  0
   10.3312   -1.9400    0.0000 H   0  0  0  0  0  0  0  0  0  0  0  0
    2.4675   -2.7250    0.0000 H   0  0  0  0  0  0  0  0  0  0  0  0
    3.2646   -2.7250    0.0000 H   0  0  0  0  0  0  0  0  0  0  0  0
   10.3312   -3.5600    0.0000 H   0  0  0  0  0  0  0  0  0  0  0  0
    2.3100   -1.2131    0.0000 H   0  0  0  0  0  0  0  0  0  0  0  0
    1.4631   -1.4400    0.0000 H   0  0  0  0  0  0  0  0  0  0  0  0
    1.6900   -2.2869    0.0000 H   0  0  0  0  0  0  0  0  0  0  0  0
  1  9  2  0  0  0  0 
  2 22  1  0  0  0  0 
  2 29  1  0  0  0  0 
  2 50  1  0  0  0  0 
  3  4  1  0  0  0  0 
  3  5  1  0  0  0  0 
  3  6  1  0  0  0  0 
  3  7  1  0  0  0  0 
  4  8  2  0  0  0  0 
  4  9  1  0  0  0  0 
  5 12  2  0  0  0  0 
  5 14  1  0  0  0  0 
  6 11  2  0  0  0  0 
  6 13  1  0  0  0  0 
  7 32  1  0  0  0  0 
  7 33  1  0  0  0  0 
  7 34  1  0  0  0  0 
  8 10  1  0  0  0  0 
  8 35  1  0  0  0  0 
  9 15  1  0  0  0  0 
 10 16  2  0  0  0  0 
 10 17  1  0  0  0  0 
 11 18  1  0  0  0  0 
 11 37  1  0  0  0  0 
 12 19  1  0  0  0  0 
 12 36  1  0  0  0  0 
 13 20  2  0  0  0  0 
 13 39  1  0  0  0  0 
 14 21  2  0  0  0  0 
 14 38  1  0  0  0  0 
 15 16  1  0  0  0  0 
 15 22  2  0  0  0  0 
 16 40  1  0  0  0  0 
 17 25  2  0  0  0  0 
 17 26  1  0  0  0  0 
 18 23  2  0  0  0  0 
 18 41  1  0  0  0  0 
 19 24  2  0  0  0  0 
 19 42  1  0  0  0  0 
 20 23  1  0  0  0  0 
 20 43  1  0  0  0  0 
 21 24  1  0  0  0  0 
 21 44  1  0  0  0  0 
 22 45  1  0  0  0  0 
 23 46  1  0  0  0  0 
 24 47  1  0  0  0  0 
 25 27  1  0  0  0  0 
 25 48  1  0  0  0  0 
 26 28  2  0  0  0  0 
 26 49  1  0  0  0  0 
 27 30  2  0  0  0  0 
 27 51  1  0  0  0  0 
 28 30  1  0  0  0  0 
 28 52  1  0  0  0  0 
 29 31  1  0  0  0  0 
 29 53  1  0  0  0  0 
 29 54  1  0  0  0  0 
 30 55  1  0  0  0  0 
 31 56  1  0  0  0  0 
 31 57  1  0  0  0  0 
 31 58  1  0  0  0  0 
M  END
> <cdk:Title>
21056172

> <cdk:Remark>
null

> <PUBCHEM_COMPOUND_CID>
21056172

> <PUBCHEM_COMPOUND_CANONICALIZED>
1

> <PUBCHEM_CACTVS_COMPLEXITY>
691

> <PUBCHEM_CACTVS_HBOND_ACCEPTOR>
2

> <PUBCHEM_CACTVS_HBOND_DONOR>
1

> <PUBCHEM_CACTVS_ROTATABLE_BOND>
6

> <PUBCHEM_CACTVS_SUBSKEYS>
AAADceB6IAAAAAAAAAAAAAAAAAAAAAAAAAAwYMEAAAAAAAABUAAAHgAQAAAADgTBmAQyAILAAACIAqBWQAACAAAgAAAIiIEIAMgIIDKAERCAIAAgkAAIiccIiMCPgAAAAAAAAAAAAAAAAAAAAAAAAAAAAA==

> <PUBCHEM_IUPAC_OPENEYE_NAME>
(6Z)-2-(1,1-diphenylethyl)-6-(ethylaminomethylene)-4-phenyl-cyclohexa-2,4-dien-1-one

> <PUBCHEM_IUPAC_CAS_NAME>
(6Z)-2-(1,1-diphenylethyl)-6-(ethylaminomethylidene)-4-phenyl-1-cyclohexa-2,4-dienone

> <PUBCHEM_IUPAC_NAME>
(6Z)-2-(1,1-diphenylethyl)-6-(ethylaminomethylidene)-4-phenylcyclohexa-2,4-dien-1-one

> <PUBCHEM_IUPAC_SYSTEMATIC_NAME>
(6Z)-2-(1,1-diphenylethyl)-6-(ethylaminomethylidene)-4-phenyl-cyclohexa-2,4-dien-1-one

> <PUBCHEM_IUPAC_TRADITIONAL_NAME>
(6Z)-2-(1,1-diphenylethyl)-6-(ethylaminomethylene)-4-phenyl-cyclohexa-2,4-dien-1-one

> <PUBCHEM_IUPAC_INCHI>
InChI=1S/C29H27NO/c1-3-30-21-24-19-23(22-13-7-4-8-14-22)20-27(28(24)31)29(2,25-15-9-5-10-16-25)26-17-11-6-12-18-26/h4-21,30H,3H2,1-2H3/b24-21-

> <PUBCHEM_IUPAC_INCHIKEY>
VHWGTBMGMRAGEZ-FLFQWRMESA-N

> <PUBCHEM_XLOGP3_AA>
7.3

> <PUBCHEM_EXACT_MASS>
405.209264

> <PUBCHEM_MOLECULAR_FORMULA>
C29H27NO

> <PUBCHEM_MOLECULAR_WEIGHT>
405.53078

> <PUBCHEM_OPENEYE_CAN_SMILES>
CCNC=C1C=C(C=C(C1=O)C(C)(C2=CC=CC=C2)C3=CC=CC=C3)C4=CC=CC=C4

> <PUBCHEM_OPENEYE_ISO_SMILES>
CCN/C=C\1/C=C(C=C(C1=O)C(C)(C2=CC=CC=C2)C3=CC=CC=C3)C4=CC=CC=C4

> <PUBCHEM_CACTVS_TPSA>
29.1

> <PUBCHEM_MONOISOTOPIC_WEIGHT>
405.209264

> <PUBCHEM_TOTAL_CHARGE>
0

> <PUBCHEM_HEAVY_ATOM_COUNT>
31

> <PUBCHEM_ATOM_DEF_STEREO_COUNT>
0

> <PUBCHEM_ATOM_UDEF_STEREO_COUNT>
0

> <PUBCHEM_BOND_DEF_STEREO_COUNT>
1

> <PUBCHEM_BOND_UDEF_STEREO_COUNT>
0

> <PUBCHEM_ISOTOPIC_ATOM_COUNT>
0

> <PUBCHEM_COMPONENT_COUNT>
1

> <PUBCHEM_CACTVS_TAUTO_COUNT>
4

> <PUBCHEM_COORDINATE_TYPE>
1

> <PUBCHEM_BONDANNOTATIONS>
11  18  8

$$$$
