37551805
  CDK     1229141544

 47 50  0  0  0  0  0  0  0  0999 V2000
    8.7788    0.5839    0.0000 S   0  0  0  0  0  0  0  0  0  0  0  0
    8.2788    1.4499    0.0000 O   0  0  0  0  0  0  0  0  0  0  0  0
    9.2788   -0.2821    0.0000 O   0  0  0  0  0  0  0  0  0  0  0  0
   12.2708    2.6186    0.0000 O   0  0  0  0  0  0  0  0  0  0  0  0
   14.0410    2.6080    0.0000 O   0  0  0  0  0  0  0  0  0  0  0  0
    3.5827   -1.4161    0.0000 N   0  0  0  0  0  0  0  0  0  0  0  0
    7.9128    0.0839    0.0000 N   0  0  0  0  0  0  0  0  0  0  0  0
    2.0000   -1.7525    0.0000 C   0  0  0  0  0  0  0  0  0  0  0  0
    2.5000   -2.6186    0.0000 C   0  0  0  0  0  0  0  0  0  0  0  0
    2.6691   -1.0094    0.0000 C   0  0  0  0  0  0  0  0  0  0  0  0
    3.4782   -2.4106    0.0000 C   0  0  0  0  0  0  0  0  0  0  0  0
    4.4487   -0.9161    0.0000 C   0  0  0  0  0  0  0  0  0  0  0  0
    4.4487    0.0839    0.0000 C   0  0  0  0  0  0  0  0  0  0  0  0
    5.3147   -1.4161    0.0000 C   0  0  0  0  0  0  0  0  0  0  0  0
    6.1808    0.0839    0.0000 C   0  0  0  0  0  0  0  0  0  0  0  0
    5.3147    0.5839    0.0000 C   0  0  0  0  0  0  0  0  0  0  0  0
    6.1808   -0.9161    0.0000 C   0  0  0  0  0  0  0  0  0  0  0  0
    7.0468    0.5839    0.0000 C   0  0  0  0  0  0  0  0  0  0  0  0
    9.6449    1.0839    0.0000 C   0  0  0  0  0  0  0  0  0  0  0  0
   10.5109    0.5839    0.0000 C   0  0  0  0  0  0  0  0  0  0  0  0
   11.3769    1.0839    0.0000 C   0  0  0  0  0  0  0  0  0  0  0  0
    9.6449    2.0839    0.0000 C   0  0  0  0  0  0  0  0  0  0  0  0
   11.3769    2.0839    0.0000 C   0  0  0  0  0  0  0  0  0  0  0  0
   10.5109    2.5839    0.0000 C   0  0  0  0  0  0  0  0  0  0  0  0
   12.2708    0.5492    0.0000 C   0  0  0  0  0  0  0  0  0  0  0  0
   13.1769    1.0631    0.0000 C   0  0  0  0  0  0  0  0  0  0  0  0
   13.1769    2.1047    0.0000 C   0  0  0  0  0  0  0  0  0  0  0  0
    1.5851   -1.2918    0.0000 H   0  0  0  0  0  0  0  0  0  0  0  0
    1.4984   -2.1170    0.0000 H   0  0  0  0  0  0  0  0  0  0  0  0
    1.9336   -2.8707    0.0000 H   0  0  0  0  0  0  0  0  0  0  0  0
    2.6916   -3.2082    0.0000 H   0  0  0  0  0  0  0  0  0  0  0  0
    2.9791   -0.4724    0.0000 H   0  0  0  0  0  0  0  0  0  0  0  0
    2.1675   -0.6450    0.0000 H   0  0  0  0  0  0  0  0  0  0  0  0
    3.5430   -3.0272    0.0000 H   0  0  0  0  0  0  0  0  0  0  0  0
    4.0982   -2.4106    0.0000 H   0  0  0  0  0  0  0  0  0  0  0  0
    3.9118    0.3939    0.0000 H   0  0  0  0  0  0  0  0  0  0  0  0
    5.3147   -2.0361    0.0000 H   0  0  0  0  0  0  0  0  0  0  0  0
    5.3147    1.2039    0.0000 H   0  0  0  0  0  0  0  0  0  0  0  0
    6.7177   -1.2261    0.0000 H   0  0  0  0  0  0  0  0  0  0  0  0
    7.4453    1.0588    0.0000 H   0  0  0  0  0  0  0  0  0  0  0  0
    6.6483    1.0588    0.0000 H   0  0  0  0  0  0  0  0  0  0  0  0
    7.9128   -0.5361    0.0000 H   0  0  0  0  0  0  0  0  0  0  0  0
   10.5109   -0.0361    0.0000 H   0  0  0  0  0  0  0  0  0  0  0  0
    9.1079    2.3939    0.0000 H   0  0  0  0  0  0  0  0  0  0  0  0
   10.5109    3.2039    0.0000 H   0  0  0  0  0  0  0  0  0  0  0  0
   12.2637   -0.0707    0.0000 H   0  0  0  0  0  0  0  0  0  0  0  0
   13.7127    0.7510    0.0000 H   0  0  0  0  0  0  0  0  0  0  0  0
  1  2  2  0  0  0  0 
  1  3  2  0  0  0  0 
  1  7  1  0  0  0  0 
  1 19  1  0  0  0  0 
  4 23  1  0  0  0  0 
  4 27  1  0  0  0  0 
  5 27  2  0  0  0  0 
  6 10  1  0  0  0  0 
  6 11  1  0  0  0  0 
  6 12  1  0  0  0  0 
  7 18  1  0  0  0  0 
  7 42  1  0  0  0  0 
  8  9  1  0  0  0  0 
  8 10  1  0  0  0  0 
  8 28  1  0  0  0  0 
  8 29  1  0  0  0  0 
  9 11  1  0  0  0  0 
  9 30  1  0  0  0  0 
  9 31  1  0  0  0  0 
 10 32  1  0  0  0  0 
 10 33  1  0  0  0  0 
 11 34  1  0  0  0  0 
 11 35  1  0  0  0  0 
 12 13  2  0  0  0  0 
 12 14  1  0  0  0  0 
 13 16  1  0  0  0  0 
 13 36  1  0  0  0  0 
 14 17  2  0  0  0  0 
 14 37  1  0  0  0  0 
 15 16  2  0  0  0  0 
 15 17  1  0  0  0  0 
 15 18  1  0  0  0  0 
 16 38  1  0  0  0  0 
 17 39  1  0  0  0  0 
 18 40  1  0  0  0  0 
 18 41  1  0  0  0  0 
 19 20  2  0  0  0  0 
 19 22  1  0  0  0  0 
 20 21  1  0  0  0  0 
 20 43  1  0  0  0  0 
 21 23  2  0  0  0  0 
 21 25  1  0  0  0  0 
 22 24  2  0  0  0  0 
 22 44  1  0  0  0  0 
 23 24  1  0  0  0  0 
 24 45  1  0  0  0  0 
 25 26  2  0  0  0  0 
 25 46  1  0  0  0  0 
 26 27  1  0  0  0  0 
 26 47  1  0  0  0  0 
M  END
> <cdk:Title>
37551805

> <cdk:Remark>
null

> <PUBCHEM_COMPOUND_CID>
37551805

> <PUBCHEM_COMPOUND_CANONICALIZED>
1

> <PUBCHEM_CACTVS_COMPLEXITY>
658

> <PUBCHEM_CACTVS_HBOND_ACCEPTOR>
6

> <PUBCHEM_CACTVS_HBOND_DONOR>
1

> <PUBCHEM_CACTVS_ROTATABLE_BOND>
5

> <PUBCHEM_CACTVS_SUBSKEYS>
AAADceB7OABAAAAAAAAAAAAAAAAAAWAAAAAwYIAAAAAAAACBQAAAHgQQQAAADAzB2AQwz4NABAKIAiTSSHDCCBAhIgAIiJgObMgMJiLEsZuGOijkwBHI6YeQwCAOCIAAgAAIAAARAAEAABAAAAAAAAAAAA==

> <PUBCHEM_IUPAC_OPENEYE_NAME>
2-oxo-N-[(4-pyrrolidin-1-ylphenyl)methyl]chromene-6-sulfonamide

> <PUBCHEM_IUPAC_CAS_NAME>
2-oxo-N-[[4-(1-pyrrolidinyl)phenyl]methyl]-1-benzopyran-6-sulfonamide

> <PUBCHEM_IUPAC_NAME>
2-oxo-N-[(4-pyrrolidin-1-ylphenyl)methyl]chromene-6-sulfonamide

> <PUBCHEM_IUPAC_SYSTEMATIC_NAME>
2-oxidanylidene-N-[(4-pyrrolidin-1-ylphenyl)methyl]chromene-6-sulfonamide

> <PUBCHEM_IUPAC_TRADITIONAL_NAME>
2-keto-N-(4-pyrrolidinobenzyl)chromene-6-sulfonamide

> <PUBCHEM_IUPAC_INCHI>
InChI=1S/C20H20N2O4S/c23-20-10-5-16-13-18(8-9-19(16)26-20)27(24,25)21-14-15-3-6-17(7-4-15)22-11-1-2-12-22/h3-10,13,21H,1-2,11-12,14H2

> <PUBCHEM_IUPAC_INCHIKEY>
SNJIRPIHLNXYDI-UHFFFAOYSA-N

> <PUBCHEM_XLOGP3_AA>
3

> <PUBCHEM_EXACT_MASS>
384.114378

> <PUBCHEM_MOLECULAR_FORMULA>
C20H20N2O4S

> <PUBCHEM_MOLECULAR_WEIGHT>
384.4488

> <PUBCHEM_OPENEYE_CAN_SMILES>
C1CCN(C1)C2=CC=C(C=C2)CNS(=O)(=O)C3=CC4=C(C=C3)OC(=O)C=C4

> <PUBCHEM_OPENEYE_ISO_SMILES>
C1CCN(C1)C2=CC=C(C=C2)CNS(=O)(=O)C3=CC4=C(C=C3)OC(=O)C=C4

> <PUBCHEM_CACTVS_TPSA>
84.1

> <PUBCHEM_MONOISOTOPIC_WEIGHT>
384.114378

> <PUBCHEM_TOTAL_CHARGE>
0

> <PUBCHEM_HEAVY_ATOM_COUNT>
27

> <PUBCHEM_ATOM_DEF_STEREO_COUNT>
0

> <PUBCHEM_ATOM_UDEF_STEREO_COUNT>
0

> <PUBCHEM_BOND_DEF_STEREO_COUNT>
0

> <PUBCHEM_BOND_UDEF_STEREO_COUNT>
0

> <PUBCHEM_ISOTOPIC_ATOM_COUNT>
0

> <PUBCHEM_COMPONENT_COUNT>
1

> <PUBCHEM_CACTVS_TAUTO_COUNT>
1

> <PUBCHEM_COORDINATE_TYPE>
1

> <PUBCHEM_BONDANNOTATIONS>
12  13  8

$$$$
