18722923
  CDK     0224152114

 76 80  0  0  0  0  0  0  0  0999 V2000
    7.6962   -0.2321    0.0000 S   0  0  0  0  0  0  0  0  0  0  0  0
   14.6962    4.9641    0.0000 F   0  0  0  0  0  0  0  0  0  0  0  0
   15.0622    3.5981    0.0000 F   0  0  0  0  0  0  0  0  0  0  0  0
   13.3301    4.5981    0.0000 F   0  0  0  0  0  0  0  0  0  0  0  0
    8.5622   -0.7321    0.0000 O   0  0  0  0  0  0  0  0  0  0  0  0
    7.1962    0.6340    0.0000 O   0  0  0  0  0  0  0  0  0  0  0  0
    6.3301    0.4019    0.0000 O   0  0  0  0  0  0  0  0  0  0  0  0
    9.6962    3.2320    0.0000 O   0  0  0  0  0  0  0  0  0  0  0  0
    4.5981   -0.5981    0.0000 O   0  0  0  0  0  0  0  0  0  0  0  0
    3.7320   -2.0981    0.0000 O   0  0  0  0  0  0  0  0  0  0  0  0
   13.6962    3.2320    0.0000 O   0  0  0  0  0  0  0  0  0  0  0  0
    7.1962   -3.0981    0.0000 N   0  0  0  0  0  0  0  0  0  0  0  0
    8.1962    0.6340    0.0000 N   0  0  0  0  0  0  0  0  0  0  0  0
    5.4641   -1.0981    0.0000 N   0  0  0  0  0  0  0  0  0  0  0  0
    7.1962   -4.0981    0.0000 C   0  0  0  0  0  0  0  0  0  0  0  0
    7.1962   -1.0981    0.0000 C   0  0  0  0  0  0  0  0  0  0  0  0
    6.6962   -4.9641    0.0000 C   0  0  0  0  0  0  0  0  0  0  0  0
    7.6962   -4.9641    0.0000 C   0  0  0  0  0  0  0  0  0  0  0  0
    8.0622   -1.5981    0.0000 C   0  0  0  0  0  0  0  0  0  0  0  0
    6.3301   -1.5981    0.0000 C   0  0  0  0  0  0  0  0  0  0  0  0
    8.0622   -2.5981    0.0000 C   0  0  0  0  0  0  0  0  0  0  0  0
    6.3301   -2.5981    0.0000 C   0  0  0  0  0  0  0  0  0  0  0  0
    6.3301   -0.5981    0.0000 C   0  0  0  0  0  0  0  0  0  0  0  0
    9.1962    0.6340    0.0000 C   0  0  0  0  0  0  0  0  0  0  0  0
    7.6962    1.5000    0.0000 C   0  0  0  0  0  0  0  0  0  0  0  0
    9.6962    1.5000    0.0000 C   0  0  0  0  0  0  0  0  0  0  0  0
    8.1962    2.3660    0.0000 C   0  0  0  0  0  0  0  0  0  0  0  0
    9.1962    2.3660    0.0000 C   0  0  0  0  0  0  0  0  0  0  0  0
    3.7320   -1.0981    0.0000 C   0  0  3  0  0  0  0  0  0  0  0  0
   10.6962    3.2320    0.0000 C   0  0  0  0  0  0  0  0  0  0  0  0
    2.8660   -0.5981    0.0000 C   0  0  0  0  0  0  0  0  0  0  0  0
    2.0000   -1.0981    0.0000 C   0  0  0  0  0  0  0  0  0  0  0  0
    2.0000   -2.0981    0.0000 C   0  0  0  0  0  0  0  0  0  0  0  0
    2.8660   -2.5981    0.0000 C   0  0  0  0  0  0  0  0  0  0  0  0
   11.1962    2.3660    0.0000 C   0  0  0  0  0  0  0  0  0  0  0  0
   11.1962    4.0981    0.0000 C   0  0  0  0  0  0  0  0  0  0  0  0
   12.1962    2.3660    0.0000 C   0  0  0  0  0  0  0  0  0  0  0  0
   12.1962    4.0981    0.0000 C   0  0  0  0  0  0  0  0  0  0  0  0
   12.6962    3.2320    0.0000 C   0  0  0  0  0  0  0  0  0  0  0  0
   14.1962    4.0981    0.0000 C   0  0  0  0  0  0  0  0  0  0  0  0
    7.7950   -3.9376    0.0000 H   0  0  0  0  0  0  0  0  0  0  0  0
    7.8038   -5.5747    0.0000 H   0  0  0  0  0  0  0  0  0  0  0  0
    8.2788   -4.7520    0.0000 H   0  0  0  0  0  0  0  0  0  0  0  0
    6.1135   -4.7520    0.0000 H   0  0  0  0  0  0  0  0  0  0  0  0
    6.5885   -5.5747    0.0000 H   0  0  0  0  0  0  0  0  0  0  0  0
    8.6728   -1.7057    0.0000 H   0  0  0  0  0  0  0  0  0  0  0  0
    8.2742   -1.0155    0.0000 H   0  0  0  0  0  0  0  0  0  0  0  0
    6.1181   -1.0155    0.0000 H   0  0  0  0  0  0  0  0  0  0  0  0
    5.7196   -1.7057    0.0000 H   0  0  0  0  0  0  0  0  0  0  0  0
    5.7196   -2.4904    0.0000 H   0  0  0  0  0  0  0  0  0  0  0  0
    6.1181   -3.1807    0.0000 H   0  0  0  0  0  0  0  0  0  0  0  0
    8.2742   -3.1807    0.0000 H   0  0  0  0  0  0  0  0  0  0  0  0
    8.6728   -2.4904    0.0000 H   0  0  0  0  0  0  0  0  0  0  0  0
    9.0885    0.0234    0.0000 H   0  0  0  0  0  0  0  0  0  0  0  0
    9.7788    0.4219    0.0000 H   0  0  0  0  0  0  0  0  0  0  0  0
    7.2212    1.8985    0.0000 H   0  0  0  0  0  0  0  0  0  0  0  0
    7.2212    1.1015    0.0000 H   0  0  0  0  0  0  0  0  0  0  0  0
   10.1711    1.1015    0.0000 H   0  0  0  0  0  0  0  0  0  0  0  0
   10.1711    1.8985    0.0000 H   0  0  0  0  0  0  0  0  0  0  0  0
    8.3038    2.9766    0.0000 H   0  0  0  0  0  0  0  0  0  0  0  0
    7.6135    2.5781    0.0000 H   0  0  0  0  0  0  0  0  0  0  0  0
    9.8162    2.3660    0.0000 H   0  0  0  0  0  0  0  0  0  0  0  0
    5.4641   -1.7181    0.0000 H   0  0  0  0  0  0  0  0  0  0  0  0
    3.7320   -0.4781    0.0000 H   0  0  0  0  0  0  0  0  0  0  0  0
    3.2646   -0.1231    0.0000 H   0  0  0  0  0  0  0  0  0  0  0  0
    2.4675   -0.1231    0.0000 H   0  0  0  0  0  0  0  0  0  0  0  0
    1.7880   -0.5155    0.0000 H   0  0  0  0  0  0  0  0  0  0  0  0
    1.3894   -1.2057    0.0000 H   0  0  0  0  0  0  0  0  0  0  0  0
    1.3894   -1.9904    0.0000 H   0  0  0  0  0  0  0  0  0  0  0  0
    1.7880   -2.6807    0.0000 H   0  0  0  0  0  0  0  0  0  0  0  0
    2.4675   -3.0730    0.0000 H   0  0  0  0  0  0  0  0  0  0  0  0
    3.2646   -3.0730    0.0000 H   0  0  0  0  0  0  0  0  0  0  0  0
   10.8862    1.8291    0.0000 H   0  0  0  0  0  0  0  0  0  0  0  0
   10.8862    4.6350    0.0000 H   0  0  0  0  0  0  0  0  0  0  0  0
   12.5062    1.8291    0.0000 H   0  0  0  0  0  0  0  0  0  0  0  0
   12.5062    4.6350    0.0000 H   0  0  0  0  0  0  0  0  0  0  0  0
  1  5  2  0  0  0  0 
  1  6  2  0  0  0  0 
  1 13  1  0  0  0  0 
  1 16  1  0  0  0  0 
  2 40  1  0  0  0  0 
  3 40  1  0  0  0  0 
  4 40  1  0  0  0  0 
  7 23  2  0  0  0  0 
  8 28  1  0  0  0  0 
  8 30  1  0  0  0  0 
  9 14  1  0  0  0  0 
  9 29  1  0  0  0  0 
 10 29  1  0  0  0  0 
 10 34  1  0  0  0  0 
 11 39  1  0  0  0  0 
 11 40  1  0  0  0  0 
 12 15  1  0  0  0  0 
 12 21  1  0  0  0  0 
 12 22  1  0  0  0  0 
 13 24  1  0  0  0  0 
 13 25  1  0  0  0  0 
 14 23  1  0  0  0  0 
 14 63  1  0  0  0  0 
 15 17  1  0  0  0  0 
 15 18  1  0  0  0  0 
 15 41  1  0  0  0  0 
 16 19  1  0  0  0  0 
 16 20  1  0  0  0  0 
 16 23  1  0  0  0  0 
 17 18  1  0  0  0  0 
 17 44  1  0  0  0  0 
 17 45  1  0  0  0  0 
 18 42  1  0  0  0  0 
 18 43  1  0  0  0  0 
 19 21  1  0  0  0  0 
 19 46  1  0  0  0  0 
 19 47  1  0  0  0  0 
 20 22  1  0  0  0  0 
 20 48  1  0  0  0  0 
 20 49  1  0  0  0  0 
 21 52  1  0  0  0  0 
 21 53  1  0  0  0  0 
 22 50  1  0  0  0  0 
 22 51  1  0  0  0  0 
 24 26  1  0  0  0  0 
 24 54  1  0  0  0  0 
 24 55  1  0  0  0  0 
 25 27  1  0  0  0  0 
 25 56  1  0  0  0  0 
 25 57  1  0  0  0  0 
 26 28  1  0  0  0  0 
 26 58  1  0  0  0  0 
 26 59  1  0  0  0  0 
 27 28  1  0  0  0  0 
 27 60  1  0  0  0  0 
 27 61  1  0  0  0  0 
 28 62  1  0  0  0  0 
 29 31  1  0  0  0  0 
 29 64  1  0  0  0  0 
 30 35  2  0  0  0  0 
 30 36  1  0  0  0  0 
 31 32  1  0  0  0  0 
 31 65  1  0  0  0  0 
 31 66  1  0  0  0  0 
 32 33  1  0  0  0  0 
 32 67  1  0  0  0  0 
 32 68  1  0  0  0  0 
 33 34  1  0  0  0  0 
 33 69  1  0  0  0  0 
 33 70  1  0  0  0  0 
 34 71  1  0  0  0  0 
 34 72  1  0  0  0  0 
 35 37  1  0  0  0  0 
 35 73  1  0  0  0  0 
 36 38  2  0  0  0  0 
 36 74  1  0  0  0  0 
 37 39  2  0  0  0  0 
 37 75  1  0  0  0  0 
 38 39  1  0  0  0  0 
 38 76  1  0  0  0  0 
M  END
> <cdk:Title>
18722923

> <cdk:Remark>
null

> <PUBCHEM_COMPOUND_CID>
18722923

> <PUBCHEM_COMPOUND_CANONICALIZED>
1

> <PUBCHEM_CACTVS_COMPLEXITY>
952

> <PUBCHEM_CACTVS_HBOND_ACCEPTOR>
12

> <PUBCHEM_CACTVS_HBOND_DONOR>
1

> <PUBCHEM_CACTVS_ROTATABLE_BOND>
9

> <PUBCHEM_CACTVS_SUBSKEYS>
AAADcfB7OYBAAAAAAAAAAAAAGAAAAAAAAAA8WJEAAAAAAAABAAAAHwQUQAAADDzx0BcwDoNQBAKIACFSEHBCCAAgIAAoiAEOCIgcJjKEsRqGOCCmwBGMqAfUYAAKAQAAAAAAAAACAAAAAAAAAAAAAAAAAA==

> <PUBCHEM_IUPAC_OPENEYE_NAME>
1-cyclopropyl-N-tetrahydropyran-2-yloxy-4-[[4-[4-(trifluoromethoxy)phenoxy]-1-piperidyl]sulfonyl]piperidine-4-carboxamide

> <PUBCHEM_IUPAC_CAS_NAME>
1-cyclopropyl-N-(2-oxanyloxy)-4-[[4-[4-(trifluoromethoxy)phenoxy]-1-piperidinyl]sulfonyl]-4-piperidinecarboxamide

> <PUBCHEM_IUPAC_NAME>
1-cyclopropyl-N-(oxan-2-yloxy)-4-[4-[4-(trifluoromethoxy)phenoxy]piperidin-1-yl]sulfonylpiperidine-4-carboxamide

> <PUBCHEM_IUPAC_SYSTEMATIC_NAME>
1-cyclopropyl-N-(oxan-2-yloxy)-4-[4-[4-(trifluoromethyloxy)phenoxy]piperidin-1-yl]sulfonyl-piperidine-4-carboxamide

> <PUBCHEM_IUPAC_TRADITIONAL_NAME>
1-cyclopropyl-N-tetrahydropyran-2-yloxy-4-[4-[4-(trifluoromethoxy)phenoxy]piperidino]sulfonyl-isonipecotamide

> <PUBCHEM_IUPAC_INCHI>
InChI=1S/C26H36F3N3O7S/c27-26(28,29)38-22-8-6-20(7-9-22)37-21-10-14-32(15-11-21)40(34,35)25(12-16-31(17-13-25)19-4-5-19)24(33)30-39-23-3-1-2-18-36-23/h6-9,19,21,23H,1-5,10-18H2,(H,30,33)

> <PUBCHEM_IUPAC_INCHIKEY>
ONIHVRRPHFMMDY-UHFFFAOYSA-N

> <PUBCHEM_XLOGP3_AA>
4.1

> <PUBCHEM_EXACT_MASS>
591.222606

> <PUBCHEM_MOLECULAR_FORMULA>
C26H36F3N3O7S

> <PUBCHEM_MOLECULAR_WEIGHT>
591.64015

> <PUBCHEM_OPENEYE_CAN_SMILES>
C1CCOC(C1)ONC(=O)C2(CCN(CC2)C3CC3)S(=O)(=O)N4CCC(CC4)OC5=CC=C(C=C5)OC(F)(F)F

> <PUBCHEM_OPENEYE_ISO_SMILES>
C1CCOC(C1)ONC(=O)C2(CCN(CC2)C3CC3)S(=O)(=O)N4CCC(CC4)OC5=CC=C(C=C5)OC(F)(F)F

> <PUBCHEM_CACTVS_TPSA>
115

> <PUBCHEM_MONOISOTOPIC_WEIGHT>
591.222606

> <PUBCHEM_TOTAL_CHARGE>
0

> <PUBCHEM_HEAVY_ATOM_COUNT>
40

> <PUBCHEM_ATOM_DEF_STEREO_COUNT>
0

> <PUBCHEM_ATOM_UDEF_STEREO_COUNT>
1

> <PUBCHEM_BOND_DEF_STEREO_COUNT>
0

> <PUBCHEM_BOND_UDEF_STEREO_COUNT>
0

> <PUBCHEM_ISOTOPIC_ATOM_COUNT>
0

> <PUBCHEM_COMPONENT_COUNT>
1

> <PUBCHEM_CACTVS_TAUTO_COUNT>
2

> <PUBCHEM_COORDINATE_TYPE>
1

> <PUBCHEM_BONDANNOTATIONS>
30  35  8

$$$$
