65138931
  CDK     0104151102

 37 38  0  0  0  0  0  0  0  0999 V2000
    5.3147   -3.6012    0.0000 Cl  0  0  0  0  0  0  0  0  0  0  0  0
    4.4487    1.8988    0.0000 S   0  0  0  0  0  0  0  0  0  0  0  0
    6.1808    0.8988    0.0000 N   0  0  0  0  0  0  0  0  0  0  0  0
    3.5827    2.3988    0.0000 C   0  0  0  0  0  0  0  0  0  0  0  0
    3.4782    3.3933    0.0000 C   0  0  0  0  0  0  0  0  0  0  0  0
    2.6691    1.9920    0.0000 C   0  0  0  0  0  0  0  0  0  0  0  0
    2.5000    3.6012    0.0000 C   0  0  0  0  0  0  0  0  0  0  0  0
    2.0000    2.7352    0.0000 C   0  0  0  0  0  0  0  0  0  0  0  0
    4.4487    0.8988    0.0000 C   0  0  0  0  0  0  0  0  0  0  0  0
    5.3147    0.3988    0.0000 C   0  0  3  0  0  0  0  0  0  0  0  0
    5.3147   -0.6012    0.0000 C   0  0  0  0  0  0  0  0  0  0  0  0
    6.1808   -1.1012    0.0000 C   0  0  0  0  0  0  0  0  0  0  0  0
    4.4487   -1.1012    0.0000 C   0  0  0  0  0  0  0  0  0  0  0  0
    6.1808    1.8988    0.0000 C   0  0  0  0  0  0  0  0  0  0  0  0
    6.1808   -2.1012    0.0000 C   0  0  0  0  0  0  0  0  0  0  0  0
    4.4487   -2.1012    0.0000 C   0  0  0  0  0  0  0  0  0  0  0  0
    5.3147   -2.6012    0.0000 C   0  0  0  0  0  0  0  0  0  0  0  0
    4.1026    2.7365    0.0000 H   0  0  0  0  0  0  0  0  0  0  0  0
    4.0982    3.3933    0.0000 H   0  0  0  0  0  0  0  0  0  0  0  0
    3.5430    4.0099    0.0000 H   0  0  0  0  0  0  0  0  0  0  0  0
    2.1675    1.6276    0.0000 H   0  0  0  0  0  0  0  0  0  0  0  0
    2.9791    1.4551    0.0000 H   0  0  0  0  0  0  0  0  0  0  0  0
    2.6916    4.1909    0.0000 H   0  0  0  0  0  0  0  0  0  0  0  0
    1.9336    3.8534    0.0000 H   0  0  0  0  0  0  0  0  0  0  0  0
    1.4984    3.0996    0.0000 H   0  0  0  0  0  0  0  0  0  0  0  0
    1.5851    2.2744    0.0000 H   0  0  0  0  0  0  0  0  0  0  0  0
    3.8381    1.0064    0.0000 H   0  0  0  0  0  0  0  0  0  0  0  0
    4.2366    0.3162    0.0000 H   0  0  0  0  0  0  0  0  0  0  0  0
    5.3147    1.0188    0.0000 H   0  0  0  0  0  0  0  0  0  0  0  0
    6.7177    0.5888    0.0000 H   0  0  0  0  0  0  0  0  0  0  0  0
    6.7177   -0.7912    0.0000 H   0  0  0  0  0  0  0  0  0  0  0  0
    3.9118   -0.7912    0.0000 H   0  0  0  0  0  0  0  0  0  0  0  0
    6.8008    1.8988    0.0000 H   0  0  0  0  0  0  0  0  0  0  0  0
    6.1808    2.5188    0.0000 H   0  0  0  0  0  0  0  0  0  0  0  0
    5.5608    1.8988    0.0000 H   0  0  0  0  0  0  0  0  0  0  0  0
    6.7177   -2.4112    0.0000 H   0  0  0  0  0  0  0  0  0  0  0  0
    3.9118   -2.4112    0.0000 H   0  0  0  0  0  0  0  0  0  0  0  0
  1 17  1  0  0  0  0 
  2  4  1  0  0  0  0 
  2  9  1  0  0  0  0 
  3 10  1  0  0  0  0 
  3 14  1  0  0  0  0 
  3 30  1  0  0  0  0 
  4  5  1  0  0  0  0 
  4  6  1  0  0  0  0 
  4 18  1  0  0  0  0 
  5  7  1  0  0  0  0 
  5 19  1  0  0  0  0 
  5 20  1  0  0  0  0 
  6  8  1  0  0  0  0 
  6 21  1  0  0  0  0 
  6 22  1  0  0  0  0 
  7  8  1  0  0  0  0 
  7 23  1  0  0  0  0 
  7 24  1  0  0  0  0 
  8 25  1  0  0  0  0 
  8 26  1  0  0  0  0 
  9 10  1  0  0  0  0 
  9 27  1  0  0  0  0 
  9 28  1  0  0  0  0 
 10 11  1  0  0  0  0 
 10 29  1  0  0  0  0 
 11 12  2  0  0  0  0 
 11 13  1  0  0  0  0 
 12 15  1  0  0  0  0 
 12 31  1  0  0  0  0 
 13 16  2  0  0  0  0 
 13 32  1  0  0  0  0 
 14 33  1  0  0  0  0 
 14 34  1  0  0  0  0 
 14 35  1  0  0  0  0 
 15 17  2  0  0  0  0 
 15 36  1  0  0  0  0 
 16 17  1  0  0  0  0 
 16 37  1  0  0  0  0 
M  END
> <cdk:Title>
65138931

> <cdk:Remark>
null

> <PUBCHEM_COMPOUND_CID>
65138931

> <PUBCHEM_COMPOUND_CANONICALIZED>
1

> <PUBCHEM_CACTVS_COMPLEXITY>
210

> <PUBCHEM_CACTVS_HBOND_ACCEPTOR>
2

> <PUBCHEM_CACTVS_HBOND_DONOR>
1

> <PUBCHEM_CACTVS_ROTATABLE_BOND>
5

> <PUBCHEM_CACTVS_SUBSKEYS>
AAADceByAABEAAAAAAAAAAAAAAAAAYAAAAAwAAAAAAAAAAABAAAAHAYQAAAADCrFWCSyAILAAAiAAiBCAACCAAAgBRAIiIAIBogIICKhkxGEIAhgkAAoiAcQgIAOBAAAAAAAAAAIAAAAAAAAAAAAAAAAAA==

> <PUBCHEM_IUPAC_OPENEYE_NAME>
1-(4-chlorophenyl)-2-cyclopentylsulfanyl-N-methyl-ethanamine

> <PUBCHEM_IUPAC_CAS_NAME>
1-(4-chlorophenyl)-2-(cyclopentylthio)-N-methylethanamine

> <PUBCHEM_IUPAC_NAME>
1-(4-chlorophenyl)-2-cyclopentylsulfanyl-N-methylethanamine

> <PUBCHEM_IUPAC_SYSTEMATIC_NAME>
1-(4-chlorophenyl)-2-cyclopentylsulfanyl-N-methyl-ethanamine

> <PUBCHEM_IUPAC_TRADITIONAL_NAME>
[1-(4-chlorophenyl)-2-(cyclopentylthio)ethyl]-methyl-amine

> <PUBCHEM_IUPAC_INCHI>
InChI=1S/C14H20ClNS/c1-16-14(10-17-13-4-2-3-5-13)11-6-8-12(15)9-7-11/h6-9,13-14,16H,2-5,10H2,1H3

> <PUBCHEM_IUPAC_INCHIKEY>
CLIUBMPSMCJIIU-UHFFFAOYSA-N

> <PUBCHEM_XLOGP3_AA>
3.9

> <PUBCHEM_EXACT_MASS>
269.100498

> <PUBCHEM_MOLECULAR_FORMULA>
C14H20ClNS

> <PUBCHEM_MOLECULAR_WEIGHT>
269.8333

> <PUBCHEM_OPENEYE_CAN_SMILES>
CNC(CSC1CCCC1)C2=CC=C(C=C2)Cl

> <PUBCHEM_OPENEYE_ISO_SMILES>
CNC(CSC1CCCC1)C2=CC=C(C=C2)Cl

> <PUBCHEM_CACTVS_TPSA>
37.3

> <PUBCHEM_MONOISOTOPIC_WEIGHT>
269.100498

> <PUBCHEM_TOTAL_CHARGE>
0

> <PUBCHEM_HEAVY_ATOM_COUNT>
17

> <PUBCHEM_ATOM_DEF_STEREO_COUNT>
0

> <PUBCHEM_ATOM_UDEF_STEREO_COUNT>
1

> <PUBCHEM_BOND_DEF_STEREO_COUNT>
0

> <PUBCHEM_BOND_UDEF_STEREO_COUNT>
0

> <PUBCHEM_ISOTOPIC_ATOM_COUNT>
0

> <PUBCHEM_COMPONENT_COUNT>
1

> <PUBCHEM_CACTVS_TAUTO_COUNT>
1

> <PUBCHEM_COORDINATE_TYPE>
1

> <PUBCHEM_BONDANNOTATIONS>
11  12  8

$$$$
