
  CDK     0202151410

  9  8  0  0  0  0  0  0  0  0999 V2000
    4.2690   -0.6123    0.0000 N   0  0  0  0  0  0  0  0  0  0  0  0
    5.1350    0.8877    0.0000 C   0  0  0  0  0  0  0  0  0  0  0  0
    5.1350    1.8877    0.0000 C   0  0  0  0  0  0  0  0  0  0  0  0
    4.2690    0.3877    0.0000 C   0  0  0  0  0  0  0  0  0  0  0  0
    6.0290    0.3530    0.0000 C   0  0  0  0  0  0  0  0  0  0  0  0
    4.2690    2.3877    0.0000 C   0  0  0  0  0  0  0  0  0  0  0  0
    6.0290    2.4223    0.0000 C   0  0  0  0  0  0  0  0  0  0  0  0
    3.4030    0.8877    0.0000 C   0  0  0  0  0  0  0  0  0  0  0  0
    6.9350    0.8669    0.0000 C   0  0  0  0  0  0  0  0  0  0  0  0
  1  4  1  0  0  0  0 
  2  3  1  0  0  0  0 
  2  4  1  0  0  0  0 
  2  5  1  0  0  0  0 
  3  6  1  0  0  0  0 
  3  7  1  0  0  0  0 
  4  8  1  0  0  0  0 
  5  9  1  0  0  0  0 
M  END
> <PUBCHEM_COMPOUND_CID>
58625834

$$$$
