37715992
  CDK     1229141544

 48 50  0  0  0  0  0  0  0  0999 V2000
    4.5981    0.2327    0.0000 O   0  0  0  0  0  0  0  0  0  0  0  0
    6.3301    3.2327    0.0000 O   0  0  0  0  0  0  0  0  0  0  0  0
    5.4641   -1.2673    0.0000 N   0  0  0  0  0  0  0  0  0  0  0  0
    6.3301    1.2327    0.0000 N   0  0  3  0  0  0  0  0  0  0  0  0
    3.7321   -1.2673    0.0000 C   0  0  2  0  0  0  0  0  0  0  0  0
    2.8660   -1.7673    0.0000 C   0  0  1  0  0  0  0  0  0  0  0  0
    4.5981   -1.7673    0.0000 C   0  0  2  0  0  0  0  0  0  0  0  0
    2.8660   -2.7673    0.0000 C   0  0  0  0  0  0  0  0  0  0  0  0
    4.5981   -2.7673    0.0000 C   0  0  0  0  0  0  0  0  0  0  0  0
    3.7321   -3.2673    0.0000 C   0  0  0  0  0  0  0  0  0  0  0  0
    3.7321   -0.2673    0.0000 C   0  0  0  0  0  0  0  0  0  0  0  0
    2.0000   -1.2673    0.0000 C   0  0  0  0  0  0  0  0  0  0  0  0
    5.4641   -0.2673    0.0000 C   0  0  0  0  0  0  0  0  0  0  0  0
    6.3301    0.2327    0.0000 C   0  0  0  0  0  0  0  0  0  0  0  0
    5.4641    1.7327    0.0000 C   0  0  0  0  0  0  0  0  0  0  0  0
    7.1962    1.7327    0.0000 C   0  0  0  0  0  0  0  0  0  0  0  0
    5.4641    2.7327    0.0000 C   0  0  0  0  0  0  0  0  0  0  0  0
    7.1962    2.7327    0.0000 C   0  0  0  0  0  0  0  0  0  0  0  0
    8.0901    1.1980    0.0000 C   0  0  0  0  0  0  0  0  0  0  0  0
    8.0901    3.2673    0.0000 C   0  0  0  0  0  0  0  0  0  0  0  0
    8.9962    1.7119    0.0000 C   0  0  0  0  0  0  0  0  0  0  0  0
    8.9962    2.7535    0.0000 C   0  0  0  0  0  0  0  0  0  0  0  0
    4.2690   -0.9573    0.0000 H   0  0  0  0  0  0  0  0  0  0  0  0
    2.8660   -1.1473    0.0000 H   0  0  0  0  0  0  0  0  0  0  0  0
    4.5981   -1.1473    0.0000 H   0  0  0  0  0  0  0  0  0  0  0  0
    2.2554   -2.6597    0.0000 H   0  0  0  0  0  0  0  0  0  0  0  0
    2.6540   -3.3499    0.0000 H   0  0  0  0  0  0  0  0  0  0  0  0
    4.8101   -3.3499    0.0000 H   0  0  0  0  0  0  0  0  0  0  0  0
    5.2087   -2.6597    0.0000 H   0  0  0  0  0  0  0  0  0  0  0  0
    3.3335   -3.7423    0.0000 H   0  0  0  0  0  0  0  0  0  0  0  0
    4.1306   -3.7423    0.0000 H   0  0  0  0  0  0  0  0  0  0  0  0
    4.3521   -0.2673    0.0000 H   0  0  0  0  0  0  0  0  0  0  0  0
    3.7321    0.3527    0.0000 H   0  0  0  0  0  0  0  0  0  0  0  0
    3.1121   -0.2673    0.0000 H   0  0  0  0  0  0  0  0  0  0  0  0
    2.3100   -0.7304    0.0000 H   0  0  0  0  0  0  0  0  0  0  0  0
    1.4631   -0.9573    0.0000 H   0  0  0  0  0  0  0  0  0  0  0  0
    1.6900   -1.8043    0.0000 H   0  0  0  0  0  0  0  0  0  0  0  0
    6.0010   -1.5773    0.0000 H   0  0  0  0  0  0  0  0  0  0  0  0
    6.5422   -0.3499    0.0000 H   0  0  0  0  0  0  0  0  0  0  0  0
    6.9407    0.3403    0.0000 H   0  0  0  0  0  0  0  0  0  0  0  0
    4.8535    1.8403    0.0000 H   0  0  0  0  0  0  0  0  0  0  0  0
    5.2521    1.1501    0.0000 H   0  0  0  0  0  0  0  0  0  0  0  0
    5.2521    3.3153    0.0000 H   0  0  0  0  0  0  0  0  0  0  0  0
    4.8535    2.6250    0.0000 H   0  0  0  0  0  0  0  0  0  0  0  0
    8.0829    0.5780    0.0000 H   0  0  0  0  0  0  0  0  0  0  0  0
    8.0829    3.8873    0.0000 H   0  0  0  0  0  0  0  0  0  0  0  0
    9.5319    1.3998    0.0000 H   0  0  0  0  0  0  0  0  0  0  0  0
    9.5319    3.0656    0.0000 H   0  0  0  0  0  0  0  0  0  0  0  0
  1 13  2  0  0  0  0 
  2 17  1  0  0  0  0 
  2 18  1  0  0  0  0 
  7  3  1  1  0  0  0 
  3 13  1  0  0  0  0 
  3 38  1  0  0  0  0 
  4 14  1  0  0  0  0 
  4 15  1  0  0  0  0 
  4 16  1  0  0  0  0 
  5  6  1  0  0  0  0 
  5  7  1  0  0  0  0 
  5 11  1  1  0  0  0 
  5 23  1  0  0  0  0 
  6  8  1  0  0  0  0 
  6 12  1  1  0  0  0 
  6 24  1  0  0  0  0 
  7  9  1  0  0  0  0 
  7 25  1  0  0  0  0 
  8 10  1  0  0  0  0 
  8 26  1  0  0  0  0 
  8 27  1  0  0  0  0 
  9 10  1  0  0  0  0 
  9 28  1  0  0  0  0 
  9 29  1  0  0  0  0 
 10 30  1  0  0  0  0 
 10 31  1  0  0  0  0 
 11 32  1  0  0  0  0 
 11 33  1  0  0  0  0 
 11 34  1  0  0  0  0 
 12 35  1  0  0  0  0 
 12 36  1  0  0  0  0 
 12 37  1  0  0  0  0 
 13 14  1  0  0  0  0 
 14 39  1  0  0  0  0 
 14 40  1  0  0  0  0 
 15 17  1  0  0  0  0 
 15 41  1  0  0  0  0 
 15 42  1  0  0  0  0 
 16 18  1  0  0  0  0 
 16 19  2  0  0  0  0 
 17 43  1  0  0  0  0 
 17 44  1  0  0  0  0 
 18 20  2  0  0  0  0 
 19 21  1  0  0  0  0 
 19 45  1  0  0  0  0 
 20 22  1  0  0  0  0 
 20 46  1  0  0  0  0 
 21 22  2  0  0  0  0 
 21 47  1  0  0  0  0 
 22 48  1  0  0  0  0 
M  END
> <cdk:Title>
37715992

> <cdk:Remark>
null

> <PUBCHEM_COMPOUND_CID>
37715992

> <PUBCHEM_COMPOUND_CANONICALIZED>
1

> <PUBCHEM_CACTVS_COMPLEXITY>
387

> <PUBCHEM_CACTVS_HBOND_ACCEPTOR>
3

> <PUBCHEM_CACTVS_HBOND_DONOR>
1

> <PUBCHEM_CACTVS_ROTATABLE_BOND>
3

> <PUBCHEM_CACTVS_SUBSKEYS>
AAADceB7MAAAAAAAAAAAAAAAAAAAAAAAAAA8YIAAAAAAAACxAAAAHgAQAAAADSzhkAYyxoPABACIACVSUACCCAAhIgAIiICPbIgOZiLEsbuXOCjk1hHY6AeQwIAOgAAAAAAAEAAAAACAACQgAAAAAAAAAA==

> <PUBCHEM_IUPAC_OPENEYE_NAME>
2-(2,3-dihydro-1,4-benzoxazin-4-yl)-N-[(1S,2R,3R)-2,3-dimethylcyclohexyl]acetamide

> <PUBCHEM_IUPAC_CAS_NAME>
2-(2,3-dihydro-1,4-benzoxazin-4-yl)-N-[(1S,2R,3R)-2,3-dimethylcyclohexyl]acetamide

> <PUBCHEM_IUPAC_NAME>
2-(2,3-dihydro-1,4-benzoxazin-4-yl)-N-[(1S,2R,3R)-2,3-dimethylcyclohexyl]acetamide

> <PUBCHEM_IUPAC_SYSTEMATIC_NAME>
2-(2,3-dihydro-1,4-benzoxazin-4-yl)-N-[(1S,2R,3R)-2,3-dimethylcyclohexyl]ethanamide

> <PUBCHEM_IUPAC_TRADITIONAL_NAME>
2-(2,3-dihydro-1,4-benzoxazin-4-yl)-N-[(1S,2R,3R)-2,3-dimethylcyclohexyl]acetamide

> <PUBCHEM_IUPAC_INCHI>
InChI=1S/C18H26N2O2/c1-13-6-5-7-15(14(13)2)19-18(21)12-20-10-11-22-17-9-4-3-8-16(17)20/h3-4,8-9,13-15H,5-7,10-12H2,1-2H3,(H,19,21)/t13-,14-,15+/m1/s1

> <PUBCHEM_IUPAC_INCHIKEY>
SKQDLBATBPKBJK-KFWWJZLASA-N

> <PUBCHEM_XLOGP3_AA>
3.8

> <PUBCHEM_EXACT_MASS>
302.199428

> <PUBCHEM_MOLECULAR_FORMULA>
C18H26N2O2

> <PUBCHEM_MOLECULAR_WEIGHT>
302.41124

> <PUBCHEM_OPENEYE_CAN_SMILES>
CC1CCCC(C1C)NC(=O)CN2CCOC3=CC=CC=C32

> <PUBCHEM_OPENEYE_ISO_SMILES>
C[C@@H]1CCC[C@@H]([C@@H]1C)NC(=O)CN2CCOC3=CC=CC=C32

> <PUBCHEM_CACTVS_TPSA>
41.6

> <PUBCHEM_MONOISOTOPIC_WEIGHT>
302.199428

> <PUBCHEM_TOTAL_CHARGE>
0

> <PUBCHEM_HEAVY_ATOM_COUNT>
22

> <PUBCHEM_ATOM_DEF_STEREO_COUNT>
3

> <PUBCHEM_ATOM_UDEF_STEREO_COUNT>
0

> <PUBCHEM_BOND_DEF_STEREO_COUNT>
0

> <PUBCHEM_BOND_UDEF_STEREO_COUNT>
0

> <PUBCHEM_ISOTOPIC_ATOM_COUNT>
0

> <PUBCHEM_COMPONENT_COUNT>
1

> <PUBCHEM_CACTVS_TAUTO_COUNT>
2

> <PUBCHEM_COORDINATE_TYPE>
1

> <PUBCHEM_BONDANNOTATIONS>
16  18  8

$$$$
38653339
  CDK     1229141544

 44 46  0  0  0  0  0  0  0  0999 V2000
    2.0000    1.1054    0.0000 O   0  0  0  0  0  0  0  0  0  0  0  0
    5.8424   -0.8592    0.0000 O   0  0  0  0  0  0  0  0  0  0  0  0
    2.3503   -4.1380    0.0000 O   0  0  0  0  0  0  0  0  0  0  0  0
    3.4013    2.1235    0.0000 N   0  0  0  0  0  0  0  0  0  0  0  0
    4.0823   -1.1380    0.0000 N   0  0  0  0  0  0  0  0  0  0  0  0
    3.2202    3.8460    0.0000 C   0  0  0  0  0  0  0  0  0  0  0  0
    4.1538    4.2044    0.0000 C   0  0  0  0  0  0  0  0  0  0  0  0
    2.8618    4.7796    0.0000 C   0  0  0  0  0  0  0  0  0  0  0  0
    3.7954    5.1380    0.0000 C   0  0  0  0  0  0  0  0  0  0  0  0
    2.8135    2.9325    0.0000 C   0  0  0  0  0  0  0  0  0  0  0  0
    3.5823    0.4009    0.0000 C   0  0  2  0  0  0  0  0  0  0  0  0
    3.2733   -0.5502    0.0000 C   0  0  0  0  0  0  0  0  0  0  0  0
    4.5823    0.4009    0.0000 C   0  0  0  0  0  0  0  0  0  0  0  0
    2.9945    1.2099    0.0000 C   0  0  0  0  0  0  0  0  0  0  0  0
    4.8913   -0.5502    0.0000 C   0  0  0  0  0  0  0  0  0  0  0  0
    4.0823   -2.1380    0.0000 C   0  0  0  0  0  0  0  0  0  0  0  0
    3.2163   -2.6380    0.0000 C   0  0  0  0  0  0  0  0  0  0  0  0
    4.9483   -2.6380    0.0000 C   0  0  0  0  0  0  0  0  0  0  0  0
    3.2163   -3.6380    0.0000 C   0  0  0  0  0  0  0  0  0  0  0  0
    4.9483   -3.6380    0.0000 C   0  0  0  0  0  0  0  0  0  0  0  0
    4.0823   -4.1380    0.0000 C   0  0  0  0  0  0  0  0  0  0  0  0
    2.3503   -5.1380    0.0000 C   0  0  0  0  0  0  0  0  0  0  0  0
    2.6004    3.8622    0.0000 H   0  0  0  0  0  0  0  0  0  0  0  0
    4.3760    3.6256    0.0000 H   0  0  0  0  0  0  0  0  0  0  0  0
    4.7326    4.4266    0.0000 H   0  0  0  0  0  0  0  0  0  0  0  0
    2.6397    5.3584    0.0000 H   0  0  0  0  0  0  0  0  0  0  0  0
    2.2830    4.5574    0.0000 H   0  0  0  0  0  0  0  0  0  0  0  0
    4.3742    5.3602    0.0000 H   0  0  0  0  0  0  0  0  0  0  0  0
    3.5732    5.7168    0.0000 H   0  0  0  0  0  0  0  0  0  0  0  0
    2.2995    3.2792    0.0000 H   0  0  0  0  0  0  0  0  0  0  0  0
    2.3828    2.4865    0.0000 H   0  0  0  0  0  0  0  0  0  0  0  0
    3.8638    0.9533    0.0000 H   0  0  0  0  0  0  0  0  0  0  0  0
    2.7069   -0.2980    0.0000 H   0  0  0  0  0  0  0  0  0  0  0  0
    2.9633   -1.0871    0.0000 H   0  0  0  0  0  0  0  0  0  0  0  0
    4.0179    2.1883    0.0000 H   0  0  0  0  0  0  0  0  0  0  0  0
    5.1888    0.5298    0.0000 H   0  0  0  0  0  0  0  0  0  0  0  0
    4.5175    1.0175    0.0000 H   0  0  0  0  0  0  0  0  0  0  0  0
    2.6794   -2.3280    0.0000 H   0  0  0  0  0  0  0  0  0  0  0  0
    5.4853   -2.3280    0.0000 H   0  0  0  0  0  0  0  0  0  0  0  0
    5.4853   -3.9480    0.0000 H   0  0  0  0  0  0  0  0  0  0  0  0
    4.0823   -4.7580    0.0000 H   0  0  0  0  0  0  0  0  0  0  0  0
    1.7303   -5.1380    0.0000 H   0  0  0  0  0  0  0  0  0  0  0  0
    2.3503   -5.7580    0.0000 H   0  0  0  0  0  0  0  0  0  0  0  0
    2.9703   -5.1380    0.0000 H   0  0  0  0  0  0  0  0  0  0  0  0
  1 14  2  0  0  0  0 
  2 15  2  0  0  0  0 
  3 19  1  0  0  0  0 
  3 22  1  0  0  0  0 
  4 10  1  0  0  0  0 
  4 14  1  0  0  0  0 
  4 35  1  0  0  0  0 
  5 12  1  0  0  0  0 
  5 15  1  0  0  0  0 
  5 16  1  0  0  0  0 
  6  7  1  0  0  0  0 
  6  8  1  0  0  0  0 
  6 10  1  0  0  0  0 
  6 23  1  0  0  0  0 
  7  9  1  0  0  0  0 
  7 24  1  0  0  0  0 
  7 25  1  0  0  0  0 
  8  9  1  0  0  0  0 
  8 26  1  0  0  0  0 
  8 27  1  0  0  0  0 
  9 28  1  0  0  0  0 
  9 29  1  0  0  0  0 
 10 30  1  0  0  0  0 
 10 31  1  0  0  0  0 
 11 12  1  0  0  0  0 
 11 13  1  0  0  0  0 
 11 14  1  1  0  0  0 
 11 32  1  0  0  0  0 
 12 33  1  0  0  0  0 
 12 34  1  0  0  0  0 
 13 15  1  0  0  0  0 
 13 36  1  0  0  0  0 
 13 37  1  0  0  0  0 
 16 17  2  0  0  0  0 
 16 18  1  0  0  0  0 
 17 19  1  0  0  0  0 
 17 38  1  0  0  0  0 
 18 20  2  0  0  0  0 
 18 39  1  0  0  0  0 
 19 21  2  0  0  0  0 
 20 21  1  0  0  0  0 
 20 40  1  0  0  0  0 
 21 41  1  0  0  0  0 
 22 42  1  0  0  0  0 
 22 43  1  0  0  0  0 
 22 44  1  0  0  0  0 
M  END
> <cdk:Title>
38653339

> <cdk:Remark>
null

> <PUBCHEM_COMPOUND_CID>
38653339

> <PUBCHEM_COMPOUND_CANONICALIZED>
1

> <PUBCHEM_CACTVS_COMPLEXITY>
422

> <PUBCHEM_CACTVS_HBOND_ACCEPTOR>
3

> <PUBCHEM_CACTVS_HBOND_DONOR>
1

> <PUBCHEM_CACTVS_ROTATABLE_BOND>
5

> <PUBCHEM_CACTVS_SUBSKEYS>
AAADceB7MAAAAAAAAAAAAAAAAABgAWAAAAAwAAAAAAAAAAABAAAAHgAQAAAADQzBkAYyxoPABACIACVSUACCCAAhIgAIiIEObIgMJjrE8ZuEMChm1hnI6AeVUAMIAAAAAgAAAAAAAAAEAAAAAAAAAAAAAA==

> <PUBCHEM_IUPAC_OPENEYE_NAME>
(3S)-N-(cyclobutylmethyl)-1-(3-methoxyphenyl)-5-oxo-pyrrolidine-3-carboxamide

> <PUBCHEM_IUPAC_CAS_NAME>
(3S)-N-(cyclobutylmethyl)-1-(3-methoxyphenyl)-5-oxo-3-pyrrolidinecarboxamide

> <PUBCHEM_IUPAC_NAME>
(3S)-N-(cyclobutylmethyl)-1-(3-methoxyphenyl)-5-oxopyrrolidine-3-carboxamide

> <PUBCHEM_IUPAC_SYSTEMATIC_NAME>
(3S)-N-(cyclobutylmethyl)-1-(3-methoxyphenyl)-5-oxidanylidene-pyrrolidine-3-carboxamide

> <PUBCHEM_IUPAC_TRADITIONAL_NAME>
(3S)-N-(cyclobutylmethyl)-5-keto-1-(3-methoxyphenyl)pyrrolidine-3-carboxamide

> <PUBCHEM_IUPAC_INCHI>
InChI=1S/C17H22N2O3/c1-22-15-7-3-6-14(9-15)19-11-13(8-16(19)20)17(21)18-10-12-4-2-5-12/h3,6-7,9,12-13H,2,4-5,8,10-11H2,1H3,(H,18,21)/t13-/m0/s1

> <PUBCHEM_IUPAC_INCHIKEY>
AQSCCLMMZGEBEN-ZDUSSCGKSA-N

> <PUBCHEM_XLOGP3_AA>
1.5

> <PUBCHEM_EXACT_MASS>
302.163043

> <PUBCHEM_MOLECULAR_FORMULA>
C17H22N2O3

> <PUBCHEM_MOLECULAR_WEIGHT>
302.36818

> <PUBCHEM_OPENEYE_CAN_SMILES>
COC1=CC=CC(=C1)N2CC(CC2=O)C(=O)NCC3CCC3

> <PUBCHEM_OPENEYE_ISO_SMILES>
COC1=CC=CC(=C1)N2C[C@H](CC2=O)C(=O)NCC3CCC3

> <PUBCHEM_CACTVS_TPSA>
58.6

> <PUBCHEM_MONOISOTOPIC_WEIGHT>
302.163043

> <PUBCHEM_TOTAL_CHARGE>
0

> <PUBCHEM_HEAVY_ATOM_COUNT>
22

> <PUBCHEM_ATOM_DEF_STEREO_COUNT>
1

> <PUBCHEM_ATOM_UDEF_STEREO_COUNT>
0

> <PUBCHEM_BOND_DEF_STEREO_COUNT>
0

> <PUBCHEM_BOND_UDEF_STEREO_COUNT>
0

> <PUBCHEM_ISOTOPIC_ATOM_COUNT>
0

> <PUBCHEM_COMPONENT_COUNT>
1

> <PUBCHEM_CACTVS_TAUTO_COUNT>
4

> <PUBCHEM_COORDINATE_TYPE>
1

> <PUBCHEM_BONDANNOTATIONS>
11  14  5

$$$$
37715992
  CDK     1229141544

 48 50  0  0  0  0  0  0  0  0999 V2000
    4.5981    0.2327    0.0000 O   0  0  0  0  0  0  0  0  0  0  0  0
    6.3301    3.2327    0.0000 O   0  0  0  0  0  0  0  0  0  0  0  0
    5.4641   -1.2673    0.0000 N   0  0  0  0  0  0  0  0  0  0  0  0
    6.3301    1.2327    0.0000 N   0  0  3  0  0  0  0  0  0  0  0  0
    3.7321   -1.2673    0.0000 C   0  0  2  0  0  0  0  0  0  0  0  0
    2.8660   -1.7673    0.0000 C   0  0  1  0  0  0  0  0  0  0  0  0
    4.5981   -1.7673    0.0000 C   0  0  2  0  0  0  0  0  0  0  0  0
    2.8660   -2.7673    0.0000 C   0  0  0  0  0  0  0  0  0  0  0  0
    4.5981   -2.7673    0.0000 C   0  0  0  0  0  0  0  0  0  0  0  0
    3.7321   -3.2673    0.0000 C   0  0  0  0  0  0  0  0  0  0  0  0
    3.7321   -0.2673    0.0000 C   0  0  0  0  0  0  0  0  0  0  0  0
    2.0000   -1.2673    0.0000 C   0  0  0  0  0  0  0  0  0  0  0  0
    5.4641   -0.2673    0.0000 C   0  0  0  0  0  0  0  0  0  0  0  0
    6.3301    0.2327    0.0000 C   0  0  0  0  0  0  0  0  0  0  0  0
    5.4641    1.7327    0.0000 C   0  0  0  0  0  0  0  0  0  0  0  0
    7.1962    1.7327    0.0000 C   0  0  0  0  0  0  0  0  0  0  0  0
    5.4641    2.7327    0.0000 C   0  0  0  0  0  0  0  0  0  0  0  0
    7.1962    2.7327    0.0000 C   0  0  0  0  0  0  0  0  0  0  0  0
    8.0901    1.1980    0.0000 C   0  0  0  0  0  0  0  0  0  0  0  0
    8.0901    3.2673    0.0000 C   0  0  0  0  0  0  0  0  0  0  0  0
    8.9962    1.7119    0.0000 C   0  0  0  0  0  0  0  0  0  0  0  0
    8.9962    2.7535    0.0000 C   0  0  0  0  0  0  0  0  0  0  0  0
    4.2690   -0.9573    0.0000 H   0  0  0  0  0  0  0  0  0  0  0  0
    2.8660   -1.1473    0.0000 H   0  0  0  0  0  0  0  0  0  0  0  0
    4.5981   -1.1473    0.0000 H   0  0  0  0  0  0  0  0  0  0  0  0
    2.2554   -2.6597    0.0000 H   0  0  0  0  0  0  0  0  0  0  0  0
    2.6540   -3.3499    0.0000 H   0  0  0  0  0  0  0  0  0  0  0  0
    4.8101   -3.3499    0.0000 H   0  0  0  0  0  0  0  0  0  0  0  0
    5.2087   -2.6597    0.0000 H   0  0  0  0  0  0  0  0  0  0  0  0
    3.3335   -3.7423    0.0000 H   0  0  0  0  0  0  0  0  0  0  0  0
    4.1306   -3.7423    0.0000 H   0  0  0  0  0  0  0  0  0  0  0  0
    4.3521   -0.2673    0.0000 H   0  0  0  0  0  0  0  0  0  0  0  0
    3.7321    0.3527    0.0000 H   0  0  0  0  0  0  0  0  0  0  0  0
    3.1121   -0.2673    0.0000 H   0  0  0  0  0  0  0  0  0  0  0  0
    2.3100   -0.7304    0.0000 H   0  0  0  0  0  0  0  0  0  0  0  0
    1.4631   -0.9573    0.0000 H   0  0  0  0  0  0  0  0  0  0  0  0
    1.6900   -1.8043    0.0000 H   0  0  0  0  0  0  0  0  0  0  0  0
    6.0010   -1.5773    0.0000 H   0  0  0  0  0  0  0  0  0  0  0  0
    6.5422   -0.3499    0.0000 H   0  0  0  0  0  0  0  0  0  0  0  0
    6.9407    0.3403    0.0000 H   0  0  0  0  0  0  0  0  0  0  0  0
    4.8535    1.8403    0.0000 H   0  0  0  0  0  0  0  0  0  0  0  0
    5.2521    1.1501    0.0000 H   0  0  0  0  0  0  0  0  0  0  0  0
    5.2521    3.3153    0.0000 H   0  0  0  0  0  0  0  0  0  0  0  0
    4.8535    2.6250    0.0000 H   0  0  0  0  0  0  0  0  0  0  0  0
    8.0829    0.5780    0.0000 H   0  0  0  0  0  0  0  0  0  0  0  0
    8.0829    3.8873    0.0000 H   0  0  0  0  0  0  0  0  0  0  0  0
    9.5319    1.3998    0.0000 H   0  0  0  0  0  0  0  0  0  0  0  0
    9.5319    3.0656    0.0000 H   0  0  0  0  0  0  0  0  0  0  0  0
  1 13  2  0  0  0  0 
  2 17  1  0  0  0  0 
  2 18  1  0  0  0  0 
  7  3  1  1  0  0  0 
  3 13  1  0  0  0  0 
  3 38  1  0  0  0  0 
  4 14  1  0  0  0  0 
  4 15  1  0  0  0  0 
  4 16  1  0  0  0  0 
  5  6  1  0  0  0  0 
  5  7  1  0  0  0  0 
  5 11  1  1  0  0  0 
  5 23  1  0  0  0  0 
  6  8  1  0  0  0  0 
  6 12  1  1  0  0  0 
  6 24  1  0  0  0  0 
  7  9  1  0  0  0  0 
  7 25  1  0  0  0  0 
  8 10  1  0  0  0  0 
  8 26  1  0  0  0  0 
  8 27  1  0  0  0  0 
  9 10  1  0  0  0  0 
  9 28  1  0  0  0  0 
  9 29  1  0  0  0  0 
 10 30  1  0  0  0  0 
 10 31  1  0  0  0  0 
 11 32  1  0  0  0  0 
 11 33  1  0  0  0  0 
 11 34  1  0  0  0  0 
 12 35  1  0  0  0  0 
 12 36  1  0  0  0  0 
 12 37  1  0  0  0  0 
 13 14  1  0  0  0  0 
 14 39  1  0  0  0  0 
 14 40  1  0  0  0  0 
 15 17  1  0  0  0  0 
 15 41  1  0  0  0  0 
 15 42  1  0  0  0  0 
 16 18  1  0  0  0  0 
 16 19  2  0  0  0  0 
 17 43  1  0  0  0  0 
 17 44  1  0  0  0  0 
 18 20  2  0  0  0  0 
 19 21  1  0  0  0  0 
 19 45  1  0  0  0  0 
 20 22  1  0  0  0  0 
 20 46  1  0  0  0  0 
 21 22  2  0  0  0  0 
 21 47  1  0  0  0  0 
 22 48  1  0  0  0  0 
M  END
> <cdk:Title>
37715992

> <cdk:Remark>
null

> <PUBCHEM_COMPOUND_CID>
37715992

> <PUBCHEM_COMPOUND_CANONICALIZED>
1

> <PUBCHEM_CACTVS_COMPLEXITY>
387

> <PUBCHEM_CACTVS_HBOND_ACCEPTOR>
3

> <PUBCHEM_CACTVS_HBOND_DONOR>
1

> <PUBCHEM_CACTVS_ROTATABLE_BOND>
3

> <PUBCHEM_CACTVS_SUBSKEYS>
AAADceB7MAAAAAAAAAAAAAAAAAAAAAAAAAA8YIAAAAAAAACxAAAAHgAQAAAADSzhkAYyxoPABACIACVSUACCCAAhIgAIiICPbIgOZiLEsbuXOCjk1hHY6AeQwIAOgAAAAAAAEAAAAACAACQgAAAAAAAAAA==

> <PUBCHEM_IUPAC_OPENEYE_NAME>
2-(2,3-dihydro-1,4-benzoxazin-4-yl)-N-[(1S,2R,3R)-2,3-dimethylcyclohexyl]acetamide

> <PUBCHEM_IUPAC_CAS_NAME>
2-(2,3-dihydro-1,4-benzoxazin-4-yl)-N-[(1S,2R,3R)-2,3-dimethylcyclohexyl]acetamide

> <PUBCHEM_IUPAC_NAME>
2-(2,3-dihydro-1,4-benzoxazin-4-yl)-N-[(1S,2R,3R)-2,3-dimethylcyclohexyl]acetamide

> <PUBCHEM_IUPAC_SYSTEMATIC_NAME>
2-(2,3-dihydro-1,4-benzoxazin-4-yl)-N-[(1S,2R,3R)-2,3-dimethylcyclohexyl]ethanamide

> <PUBCHEM_IUPAC_TRADITIONAL_NAME>
2-(2,3-dihydro-1,4-benzoxazin-4-yl)-N-[(1S,2R,3R)-2,3-dimethylcyclohexyl]acetamide

> <PUBCHEM_IUPAC_INCHI>
InChI=1S/C18H26N2O2/c1-13-6-5-7-15(14(13)2)19-18(21)12-20-10-11-22-17-9-4-3-8-16(17)20/h3-4,8-9,13-15H,5-7,10-12H2,1-2H3,(H,19,21)/t13-,14-,15+/m1/s1

> <PUBCHEM_IUPAC_INCHIKEY>
SKQDLBATBPKBJK-KFWWJZLASA-N

> <PUBCHEM_XLOGP3_AA>
3.8

> <PUBCHEM_EXACT_MASS>
302.199428

> <PUBCHEM_MOLECULAR_FORMULA>
C18H26N2O2

> <PUBCHEM_MOLECULAR_WEIGHT>
302.41124

> <PUBCHEM_OPENEYE_CAN_SMILES>
CC1CCCC(C1C)NC(=O)CN2CCOC3=CC=CC=C32

> <PUBCHEM_OPENEYE_ISO_SMILES>
C[C@@H]1CCC[C@@H]([C@@H]1C)NC(=O)CN2CCOC3=CC=CC=C32

> <PUBCHEM_CACTVS_TPSA>
41.6

> <PUBCHEM_MONOISOTOPIC_WEIGHT>
302.199428

> <PUBCHEM_TOTAL_CHARGE>
0

> <PUBCHEM_HEAVY_ATOM_COUNT>
22

> <PUBCHEM_ATOM_DEF_STEREO_COUNT>
3

> <PUBCHEM_ATOM_UDEF_STEREO_COUNT>
0

> <PUBCHEM_BOND_DEF_STEREO_COUNT>
0

> <PUBCHEM_BOND_UDEF_STEREO_COUNT>
0

> <PUBCHEM_ISOTOPIC_ATOM_COUNT>
0

> <PUBCHEM_COMPONENT_COUNT>
1

> <PUBCHEM_CACTVS_TAUTO_COUNT>
2

> <PUBCHEM_COORDINATE_TYPE>
1

> <PUBCHEM_BONDANNOTATIONS>
16  18  8

$$$$
9355739
  CDK     1229141544

 32 34  0  0  0  0  0  0  0  0999 V2000
    8.4993    3.9602    0.0000 Br  0  0  0  0  0  0  0  0  0  0  0  0
    9.2136    0.5705    0.0000 F   0  0  0  0  0  0  0  0  0  0  0  0
    4.9889   -1.2049    0.0000 O   0  0  0  0  0  0  0  0  0  0  0  0
    5.6103    0.6961    0.0000 O   0  0  0  0  0  0  0  0  0  0  0  0
    3.7320   -2.4602    0.0000 N   0  0  0  0  0  0  0  0  0  0  0  0
    7.2566    0.1581    0.0000 N   0  0  0  0  0  0  0  0  0  0  0  0
    4.6783   -3.7649    0.0000 N   0  0  0  0  0  0  0  0  0  0  0  0
    5.2619   -2.9602    0.0000 N   0  0  0  0  0  0  0  0  0  0  0  0
    3.7320   -3.4602    0.0000 C   0  0  0  0  0  0  0  0  0  0  0  0
    4.6783   -2.1554    0.0000 C   0  0  0  0  0  0  0  0  0  0  0  0
    2.8660   -1.9602    0.0000 C   0  0  0  0  0  0  0  0  0  0  0  0
    5.9674   -0.9987    0.0000 C   0  0  0  0  0  0  0  0  0  0  0  0
    2.8660   -3.9602    0.0000 C   0  0  0  0  0  0  0  0  0  0  0  0
    7.5673    1.1086    0.0000 C   0  0  0  0  0  0  0  0  0  0  0  0
    6.2781   -0.0482    0.0000 C   0  0  0  0  0  0  0  0  0  0  0  0
    2.0000   -2.4602    0.0000 C   0  0  0  0  0  0  0  0  0  0  0  0
    2.0000   -3.4602    0.0000 C   0  0  0  0  0  0  0  0  0  0  0  0
    8.5458    1.3148    0.0000 C   0  0  0  0  0  0  0  0  0  0  0  0
    6.8994    1.8529    0.0000 C   0  0  0  0  0  0  0  0  0  0  0  0
    8.8564    2.2653    0.0000 C   0  0  0  0  0  0  0  0  0  0  0  0
    7.2101    2.8034    0.0000 C   0  0  0  0  0  0  0  0  0  0  0  0
    8.1886    3.0096    0.0000 C   0  0  0  0  0  0  0  0  0  0  0  0
    2.8660   -1.3402    0.0000 H   0  0  0  0  0  0  0  0  0  0  0  0
    5.9880   -1.6183    0.0000 H   0  0  0  0  0  0  0  0  0  0  0  0
    6.5812   -1.0860    0.0000 H   0  0  0  0  0  0  0  0  0  0  0  0
    2.8660   -4.5802    0.0000 H   0  0  0  0  0  0  0  0  0  0  0  0
    7.6707   -0.3034    0.0000 H   0  0  0  0  0  0  0  0  0  0  0  0
    1.4631   -2.1502    0.0000 H   0  0  0  0  0  0  0  0  0  0  0  0
    1.4631   -3.7702    0.0000 H   0  0  0  0  0  0  0  0  0  0  0  0
    6.2928    1.7250    0.0000 H   0  0  0  0  0  0  0  0  0  0  0  0
    9.4631    2.3932    0.0000 H   0  0  0  0  0  0  0  0  0  0  0  0
    6.7960    3.2649    0.0000 H   0  0  0  0  0  0  0  0  0  0  0  0
  1 22  1  0  0  0  0 
  2 18  1  0  0  0  0 
  3 10  1  0  0  0  0 
  3 12  1  0  0  0  0 
  4 15  2  0  0  0  0 
  5  9  1  0  0  0  0 
  5 10  1  0  0  0  0 
  5 11  1  0  0  0  0 
  6 14  1  0  0  0  0 
  6 15  1  0  0  0  0 
  6 27  1  0  0  0  0 
  7  8  1  0  0  0  0 
  7  9  2  0  0  0  0 
  8 10  2  0  0  0  0 
  9 13  1  0  0  0  0 
 11 16  2  0  0  0  0 
 11 23  1  0  0  0  0 
 12 15  1  0  0  0  0 
 12 24  1  0  0  0  0 
 12 25  1  0  0  0  0 
 13 17  2  0  0  0  0 
 13 26  1  0  0  0  0 
 14 18  2  0  0  0  0 
 14 19  1  0  0  0  0 
 16 17  1  0  0  0  0 
 16 28  1  0  0  0  0 
 17 29  1  0  0  0  0 
 18 20  1  0  0  0  0 
 19 21  2  0  0  0  0 
 19 30  1  0  0  0  0 
 20 22  2  0  0  0  0 
 20 31  1  0  0  0  0 
 21 22  1  0  0  0  0 
 21 32  1  0  0  0  0 
M  END
> <cdk:Title>
9355739

> <cdk:Remark>
null

> <PUBCHEM_COMPOUND_CID>
9355739

> <PUBCHEM_COMPOUND_CANONICALIZED>
1

> <PUBCHEM_CACTVS_COMPLEXITY>
403

> <PUBCHEM_CACTVS_HBOND_ACCEPTOR>
5

> <PUBCHEM_CACTVS_HBOND_DONOR>
1

> <PUBCHEM_CACTVS_ROTATABLE_BOND>
4

> <PUBCHEM_CACTVS_SUBSKEYS>
AAADccBzsQAAEAAAAAAAAAAAAAAAAWAAAAA8QAAAAAAAAFgB8AAAHwBYAAABqAjhkw498J/MHACqADd3dAKShCsxAqQd2CB4ZLiKKOLAmZWNoAhgnALYyjcQAAAAAAAgAAAAAAAAAEAAAAAAAAAAAAAAAA==

> <PUBCHEM_IUPAC_OPENEYE_NAME>
N-(4-bromo-2-fluoro-phenyl)-2-([1,2,4]triazolo[4,3-a]pyridin-3-yloxy)acetamide

> <PUBCHEM_IUPAC_CAS_NAME>
N-(4-bromo-2-fluorophenyl)-2-([1,2,4]triazolo[4,3-a]pyridin-3-yloxy)acetamide

> <PUBCHEM_IUPAC_NAME>
N-(4-bromo-2-fluorophenyl)-2-([1,2,4]triazolo[4,3-a]pyridin-3-yloxy)acetamide

> <PUBCHEM_IUPAC_SYSTEMATIC_NAME>
N-(4-bromanyl-2-fluoranyl-phenyl)-2-([1,2,4]triazolo[4,3-a]pyridin-3-yloxy)ethanamide

> <PUBCHEM_IUPAC_TRADITIONAL_NAME>
N-(4-bromo-2-fluoro-phenyl)-2-([1,2,4]triazolo[4,3-a]pyridin-3-yloxy)acetamide

> <PUBCHEM_IUPAC_INCHI>
InChI=1S/C14H10BrFN4O2/c15-9-4-5-11(10(16)7-9)17-13(21)8-22-14-19-18-12-3-1-2-6-20(12)14/h1-7H,8H2,(H,17,21)

> <PUBCHEM_IUPAC_INCHIKEY>
MVSXMRLLUVCEPK-UHFFFAOYSA-N

> <PUBCHEM_XLOGP3_AA>
3.2

> <PUBCHEM_EXACT_MASS>
363.997116

> <PUBCHEM_MOLECULAR_FORMULA>
C14H10BrFN4O2

> <PUBCHEM_MOLECULAR_WEIGHT>
365.157203

> <PUBCHEM_OPENEYE_CAN_SMILES>
C1=CC2=NN=C(N2C=C1)OCC(=O)NC3=C(C=C(C=C3)Br)F

> <PUBCHEM_OPENEYE_ISO_SMILES>
C1=CC2=NN=C(N2C=C1)OCC(=O)NC3=C(C=C(C=C3)Br)F

> <PUBCHEM_CACTVS_TPSA>
68.5

> <PUBCHEM_MONOISOTOPIC_WEIGHT>
363.997116

> <PUBCHEM_TOTAL_CHARGE>
0

> <PUBCHEM_HEAVY_ATOM_COUNT>
22

> <PUBCHEM_ATOM_DEF_STEREO_COUNT>
0

> <PUBCHEM_ATOM_UDEF_STEREO_COUNT>
0

> <PUBCHEM_BOND_DEF_STEREO_COUNT>
0

> <PUBCHEM_BOND_UDEF_STEREO_COUNT>
0

> <PUBCHEM_ISOTOPIC_ATOM_COUNT>
0

> <PUBCHEM_COMPONENT_COUNT>
1

> <PUBCHEM_CACTVS_TAUTO_COUNT>
3

> <PUBCHEM_COORDINATE_TYPE>
1

> <PUBCHEM_BONDANNOTATIONS>
11  16  8

$$$$
