49785243
  CDK     0202151413

 66 71  0  0  0  0  0  0  0  0999 V2000
    5.9079    0.3660    0.0000 F   0  0  0  0  0  0  0  0  0  0  0  0
    6.2739    1.7320    0.0000 F   0  0  0  0  0  0  0  0  0  0  0  0
    7.2739    0.0000    0.0000 F   0  0  0  0  0  0  0  0  0  0  0  0
    4.8746    8.6546    0.0000 O   0  0  0  0  0  0  0  0  0  0  0  0
   13.0614    8.2714    0.0000 O   0  0  0  0  0  0  0  0  0  0  0  0
    8.5060    0.8660    0.0000 O   0  0  0  0  0  0  0  0  0  0  0  0
    7.6399    2.3660    0.0000 O   0  0  0  0  0  0  0  0  0  0  0  0
    3.2868    9.4636    0.0000 N   0  0  0  0  0  0  0  0  0  0  0  0
    6.7945    4.9499    0.0000 N   0  0  0  0  0  0  0  0  0  0  0  0
    7.7667    5.1574    0.0000 N   0  0  0  0  0  0  0  0  0  0  0  0
   14.0250    6.2415    0.0000 N   0  0  0  0  0  0  0  0  0  0  0  0
    3.2868    7.8455    0.0000 C   0  0  3  0  0  0  0  0  0  0  0  0
    4.0300    7.1764    0.0000 C   0  0  1  0  0  0  0  0  0  0  0  0
    3.0789    6.8674    0.0000 C   0  0  0  0  0  0  0  0  0  0  0  0
    2.3358    8.1546    0.0000 C   0  0  0  0  0  0  0  0  0  0  0  0
    3.8746    8.6546    0.0000 C   0  0  0  0  0  0  0  0  0  0  0  0
    5.0081    6.9685    0.0000 C   0  0  0  0  0  0  0  0  0  0  0  0
    2.3358    9.1546    0.0000 C   0  0  0  0  0  0  0  0  0  0  0  0
    1.4418    7.6199    0.0000 C   0  0  0  0  0  0  0  0  0  0  0  0
    5.3171    6.0174    0.0000 C   0  0  0  0  0  0  0  0  0  0  0  0
    5.6772    7.7116    0.0000 C   0  0  0  0  0  0  0  0  0  0  0  0
    1.4418    9.6892    0.0000 C   0  0  0  0  0  0  0  0  0  0  0  0
    0.5357    8.1337    0.0000 C   0  0  0  0  0  0  0  0  0  0  0  0
    6.2953    5.8095    0.0000 C   0  0  0  0  0  0  0  0  0  0  0  0
    0.5357    9.1754    0.0000 C   0  0  0  0  0  0  0  0  0  0  0  0
    6.6554    7.5037    0.0000 C   0  0  0  0  0  0  0  0  0  0  0  0
    6.9644    6.5527    0.0000 C   0  0  0  0  0  0  0  0  0  0  0  0
    7.8715    6.1460    0.0000 C   0  0  0  0  0  0  0  0  0  0  0  0
    8.7384    6.6445    0.0000 C   0  0  0  0  0  0  0  0  0  0  0  0
    9.6035    6.1430    0.0000 C   0  0  0  0  0  0  0  0  0  0  0  0
   10.4704    6.6415    0.0000 C   0  0  0  0  0  0  0  0  0  0  0  0
   11.3736    6.1226    0.0000 C   0  0  0  0  0  0  0  0  0  0  0  0
   12.2705    6.6523    0.0000 C   0  0  0  0  0  0  0  0  0  0  0  0
   10.4762    7.6831    0.0000 C   0  0  0  0  0  0  0  0  0  0  0  0
   13.0488    6.0244    0.0000 C   0  0  0  0  0  0  0  0  0  0  0  0
   12.2761    7.6522    0.0000 C   0  0  0  0  0  0  0  0  0  0  0  0
   11.3852    8.1919    0.0000 C   0  0  0  0  0  0  0  0  0  0  0  0
   14.4639    7.1400    0.0000 C   0  0  0  0  0  0  0  0  0  0  0  0
   14.0351    8.0434    0.0000 C   0  0  0  0  0  0  0  0  0  0  0  0
    6.7739    0.8660    0.0000 C   0  0  0  0  0  0  0  0  0  0  0  0
    7.6399    1.3660    0.0000 C   0  0  0  0  0  0  0  0  0  0  0  0
    4.0624    6.5573    0.0000 H   0  0  0  0  0  0  0  0  0  0  0  0
    2.4593    6.8890    0.0000 H   0  0  0  0  0  0  0  0  0  0  0  0
    3.1652    6.2534    0.0000 H   0  0  0  0  0  0  0  0  0  0  0  0
    3.4784   10.0532    0.0000 H   0  0  0  0  0  0  0  0  0  0  0  0
    1.4490    6.9999    0.0000 H   0  0  0  0  0  0  0  0  0  0  0  0
    4.9023    5.5567    0.0000 H   0  0  0  0  0  0  0  0  0  0  0  0
    5.4856    8.3013    0.0000 H   0  0  0  0  0  0  0  0  0  0  0  0
    1.4490   10.3092    0.0000 H   0  0  0  0  0  0  0  0  0  0  0  0
    0.0000    7.8217    0.0000 H   0  0  0  0  0  0  0  0  0  0  0  0
    0.0000    9.4874    0.0000 H   0  0  0  0  0  0  0  0  0  0  0  0
    7.0702    7.9645    0.0000 H   0  0  0  0  0  0  0  0  0  0  0  0
    6.5433    4.3831    0.0000 H   0  0  0  0  0  0  0  0  0  0  0  0
    8.7394    7.2645    0.0000 H   0  0  0  0  0  0  0  0  0  0  0  0
    9.6024    5.5230    0.0000 H   0  0  0  0  0  0  0  0  0  0  0  0
   11.3773    5.5026    0.0000 H   0  0  0  0  0  0  0  0  0  0  0  0
    9.9422    7.9982    0.0000 H   0  0  0  0  0  0  0  0  0  0  0  0
   12.5620    5.6406    0.0000 H   0  0  0  0  0  0  0  0  0  0  0  0
   13.3147    5.4643    0.0000 H   0  0  0  0  0  0  0  0  0  0  0  0
   11.3958    8.8118    0.0000 H   0  0  0  0  0  0  0  0  0  0  0  0
   14.9465    6.7508    0.0000 H   0  0  0  0  0  0  0  0  0  0  0  0
   14.9508    7.5239    0.0000 H   0  0  0  0  0  0  0  0  0  0  0  0
   14.4089    5.7546    0.0000 H   0  0  0  0  0  0  0  0  0  0  0  0
   14.6403    8.1780    0.0000 H   0  0  0  0  0  0  0  0  0  0  0  0
   14.0385    8.6634    0.0000 H   0  0  0  0  0  0  0  0  0  0  0  0
    9.0429    1.1760    0.0000 H   0  0  0  0  0  0  0  0  0  0  0  0
  1 40  1  0  0  0  0 
  2 40  1  0  0  0  0 
  3 40  1  0  0  0  0 
  4 16  2  0  0  0  0 
  5 36  1  0  0  0  0 
  5 39  1  0  0  0  0 
  6 41  1  0  0  0  0 
  6 66  1  0  0  0  0 
  7 41  2  0  0  0  0 
  8 16  1  0  0  0  0 
  8 18  1  0  0  0  0 
  8 45  1  0  0  0  0 
  9 10  1  0  0  0  0 
  9 24  1  0  0  0  0 
  9 53  1  0  0  0  0 
 10 28  2  0  0  0  0 
 11 35  1  0  0  0  0 
 11 38  1  0  0  0  0 
 11 63  1  0  0  0  0 
 12 13  1  0  0  0  0 
 12 14  1  0  0  0  0 
 12 15  1  0  0  0  0 
 12 16  1  0  0  0  0 
 13 14  1  0  0  0  0 
 13 17  1  6  0  0  0 
 13 42  1  0  0  0  0 
 14 43  1  0  0  0  0 
 14 44  1  0  0  0  0 
 15 18  1  0  0  0  0 
 15 19  2  0  0  0  0 
 17 20  2  0  0  0  0 
 17 21  1  0  0  0  0 
 18 22  2  0  0  0  0 
 19 23  1  0  0  0  0 
 19 46  1  0  0  0  0 
 20 24  1  0  0  0  0 
 20 47  1  0  0  0  0 
 21 26  2  0  0  0  0 
 21 48  1  0  0  0  0 
 22 25  1  0  0  0  0 
 22 49  1  0  0  0  0 
 23 25  2  0  0  0  0 
 23 50  1  0  0  0  0 
 24 27  2  0  0  0  0 
 25 51  1  0  0  0  0 
 26 27  1  0  0  0  0 
 26 52  1  0  0  0  0 
 27 28  1  0  0  0  0 
 28 29  1  0  0  0  0 
 29 30  2  0  0  0  0 
 29 54  1  0  0  0  0 
 30 31  1  0  0  0  0 
 30 55  1  0  0  0  0 
 31 32  2  0  0  0  0 
 31 34  1  0  0  0  0 
 32 33  1  0  0  0  0 
 32 56  1  0  0  0  0 
 33 35  1  0  0  0  0 
 33 36  2  0  0  0  0 
 34 37  2  0  0  0  0 
 34 57  1  0  0  0  0 
 35 58  1  0  0  0  0 
 35 59  1  0  0  0  0 
 36 37  1  0  0  0  0 
 37 60  1  0  0  0  0 
 38 39  1  0  0  0  0 
 38 61  1  0  0  0  0 
 38 62  1  0  0  0  0 
 39 64  1  0  0  0  0 
 39 65  1  0  0  0  0 
 40 41  1  0  0  0  0 
M  END
> <cdk:Title>
49785243

> <cdk:Remark>
null

> <PUBCHEM_COMPOUND_CID>
49785243

> <PUBCHEM_COMPOUND_CANONICALIZED>
1

> <PUBCHEM_CACTVS_COMPLEXITY>
902

> <PUBCHEM_CACTVS_HBOND_ACCEPTOR>
9

> <PUBCHEM_CACTVS_HBOND_DONOR>
4

> <PUBCHEM_CACTVS_ROTATABLE_BOND>
3

> <PUBCHEM_CACTVS_SUBSKEYS>
AAADceB7uYAAAAAAAAAAAAAAGAAAAWLAAAAwYMAABYAAAFgB9AAAHwAYCAAADwzhnhYwzvLjBgCqAyXyWACSDAAhIgAYuaE+bJgOJrLE9duHvCjm3BHY6AecyOCP4AACQAAKAADAAASAABQAAAAAAAAAAA==

> <PUBCHEM_IUPAC_OPENEYE_NAME>
(2S)-2-[3-[(E)-2-(2,3,4,5-tetrahydro-1,4-benzoxazepin-7-yl)vinyl]-1H-indazol-6-yl]spiro[cyclopropane-1,3'-indoline]-2'-one;2,2,2-trifluoroacetic acid

> <PUBCHEM_IUPAC_CAS_NAME>
(2'S)-2'-[3-[(E)-2-(2,3,4,5-tetrahydro-1,4-benzoxazepin-7-yl)ethenyl]-1H-indazol-6-yl]-2-spiro[1H-indole-3,1'-cyclopropane]one;2,2,2-trifluoroacetic acid

> <PUBCHEM_IUPAC_NAME>
(2'S)-2'-[3-[(E)-2-(2,3,4,5-tetrahydro-1,4-benzoxazepin-7-yl)ethenyl]-1H-indazol-6-yl]spiro[1H-indole-3,1'-cyclopropane]-2-one;2,2,2-trifluoroacetic acid

> <PUBCHEM_IUPAC_SYSTEMATIC_NAME>
(2'S)-2'-[3-[(E)-2-(2,3,4,5-tetrahydro-1,4-benzoxazepin-7-yl)ethenyl]-1H-indazol-6-yl]spiro[1H-indole-3,1'-cyclopropane]-2-one;2,2,2-tris(fluoranyl)ethanoic acid

> <PUBCHEM_IUPAC_TRADITIONAL_NAME>
(2S)-2-[3-[(E)-2-(2,3,4,5-tetrahydro-1,4-benzoxazepin-7-yl)vinyl]-1H-indazol-6-yl]spiro[cyclopropane-1,3'-indoline]-2'-one;2,2,2-trifluoroacetic acid

> <PUBCHEM_IUPAC_INCHI>
InChI=1S/C28H24N4O2.C2HF3O2/c33-27-28(21-3-1-2-4-24(21)30-27)15-22(28)18-7-8-20-23(31-32-25(20)14-18)9-5-17-6-10-26-19(13-17)16-29-11-12-34-26;3-2(4,5)1(6)7/h1-10,13-14,22,29H,11-12,15-16H2,(H,30,33)(H,31,32);(H,6,7)/b9-5+;/t22-,28?;/m0./s1

> <PUBCHEM_IUPAC_INCHIKEY>
DOZMLCAGHPGTTA-GLVMTNHRSA-N

> <PUBCHEM_EXACT_MASS>
562.18279

> <PUBCHEM_MOLECULAR_FORMULA>
C30H25F3N4O4

> <PUBCHEM_MOLECULAR_WEIGHT>
562.53911

> <PUBCHEM_OPENEYE_CAN_SMILES>
C1COC2=C(CN1)C=C(C=C2)C=CC3=NNC4=C3C=CC(=C4)C5CC56C7=CC=CC=C7NC6=O.C(=O)(C(F)(F)F)O

> <PUBCHEM_OPENEYE_ISO_SMILES>
C1COC2=C(CN1)C=C(C=C2)/C=C/C3=NNC4=C3C=CC(=C4)[C@@H]5CC56C7=CC=CC=C7NC6=O.C(=O)(C(F)(F)F)O

> <PUBCHEM_CACTVS_TPSA>
116

> <PUBCHEM_MONOISOTOPIC_WEIGHT>
562.18279

> <PUBCHEM_TOTAL_CHARGE>
0

> <PUBCHEM_HEAVY_ATOM_COUNT>
41

> <PUBCHEM_ATOM_DEF_STEREO_COUNT>
1

> <PUBCHEM_ATOM_UDEF_STEREO_COUNT>
1

> <PUBCHEM_BOND_DEF_STEREO_COUNT>
1

> <PUBCHEM_BOND_UDEF_STEREO_COUNT>
0

> <PUBCHEM_ISOTOPIC_ATOM_COUNT>
0

> <PUBCHEM_COMPONENT_COUNT>
2

> <PUBCHEM_CACTVS_TAUTO_COUNT>
6

> <PUBCHEM_COORDINATE_TYPE>
1

> <PUBCHEM_BONDANNOTATIONS>
10  28  8

$$$$
