16379568
  CDK     1227140956

 35 36  0  0  0  0  0  0  0  0999 V2000
    2.0000   -0.8080    0.0000 F   0  0  0  0  0  0  0  0  0  0  0  0
    2.0000   -2.8080    0.0000 F   0  0  0  0  0  0  0  0  0  0  0  0
    5.7195   -0.6929    0.0000 O   0  0  0  0  0  0  0  0  0  0  0  0
    6.0875    2.8080    0.0000 O   0  0  0  0  0  0  0  0  0  0  0  0
    3.9595    2.3557    0.0000 O   0  0  0  0  0  0  0  0  0  0  0  0
    6.1808    1.0284    0.0000 N   0  0  0  0  0  0  0  0  0  0  0  0
    4.5981    0.6920    0.0000 N   0  0  0  0  0  0  0  0  0  0  0  0
    7.7631    1.7329    0.0000 C   0  0  0  0  0  0  0  0  0  0  0  0
    7.1753    0.9239    0.0000 C   0  0  0  0  0  0  0  0  0  0  0  0
    5.5116    0.2853    0.0000 C   0  0  0  0  0  0  0  0  0  0  0  0
    3.7320    0.1920    0.0000 C   0  0  0  0  0  0  0  0  0  0  0  0
    5.6808    1.8944    0.0000 C   0  0  0  0  0  0  0  0  0  0  0  0
    8.7576    1.6284    0.0000 C   0  0  0  0  0  0  0  0  0  0  0  0
    7.3563    2.6465    0.0000 C   0  0  0  0  0  0  0  0  0  0  0  0
    4.7026    1.6865    0.0000 C   0  0  0  0  0  0  0  0  0  0  0  0
    3.7320   -0.8080    0.0000 C   0  0  0  0  0  0  0  0  0  0  0  0
    2.8660   -1.3080    0.0000 C   0  0  0  0  0  0  0  0  0  0  0  0
    4.5981   -1.3080    0.0000 C   0  0  0  0  0  0  0  0  0  0  0  0
    2.8660   -2.3080    0.0000 C   0  0  0  0  0  0  0  0  0  0  0  0
    4.5981   -2.3080    0.0000 C   0  0  0  0  0  0  0  0  0  0  0  0
    3.7320   -2.8080    0.0000 C   0  0  0  0  0  0  0  0  0  0  0  0
    8.1275    2.2345    0.0000 H   0  0  0  0  0  0  0  0  0  0  0  0
    7.0044    0.3279    0.0000 H   0  0  0  0  0  0  0  0  0  0  0  0
    7.7325    0.6521    0.0000 H   0  0  0  0  0  0  0  0  0  0  0  0
    3.5200    0.7746    0.0000 H   0  0  0  0  0  0  0  0  0  0  0  0
    3.1215    0.0843    0.0000 H   0  0  0  0  0  0  0  0  0  0  0  0
    7.9227    2.8986    0.0000 H   0  0  0  0  0  0  0  0  0  0  0  0
    7.1042    3.2128    0.0000 H   0  0  0  0  0  0  0  0  0  0  0  0
    8.6928    1.0118    0.0000 H   0  0  0  0  0  0  0  0  0  0  0  0
    9.3742    1.5636    0.0000 H   0  0  0  0  0  0  0  0  0  0  0  0
    8.8224    2.2450    0.0000 H   0  0  0  0  0  0  0  0  0  0  0  0
    6.7899    2.3943    0.0000 H   0  0  0  0  0  0  0  0  0  0  0  0
    5.1350   -0.9980    0.0000 H   0  0  0  0  0  0  0  0  0  0  0  0
    5.1350   -2.6180    0.0000 H   0  0  0  0  0  0  0  0  0  0  0  0
    3.7320   -3.4280    0.0000 H   0  0  0  0  0  0  0  0  0  0  0  0
  1 17  1  0  0  0  0 
  2 19  1  0  0  0  0 
  3 10  2  0  0  0  0 
  4 12  2  0  0  0  0 
  5 15  2  0  0  0  0 
  6  9  1  0  0  0  0 
  6 10  1  0  0  0  0 
  6 12  1  0  0  0  0 
  7 10  1  0  0  0  0 
  7 11  1  0  0  0  0 
  7 15  1  0  0  0  0 
  8  9  1  0  0  0  0 
  8 13  1  0  0  0  0 
  8 14  1  0  0  0  0 
  8 22  1  0  0  0  0 
  9 23  1  0  0  0  0 
  9 24  1  0  0  0  0 
 11 16  1  0  0  0  0 
 11 25  1  0  0  0  0 
 11 26  1  0  0  0  0 
 12 15  1  0  0  0  0 
 13 29  1  0  0  0  0 
 13 30  1  0  0  0  0 
 13 31  1  0  0  0  0 
 14 27  1  0  0  0  0 
 14 28  1  0  0  0  0 
 14 32  1  0  0  0  0 
 16 17  2  0  0  0  0 
 16 18  1  0  0  0  0 
 17 19  1  0  0  0  0 
 18 20  2  0  0  0  0 
 18 33  1  0  0  0  0 
 19 21  2  0  0  0  0 
 20 21  1  0  0  0  0 
 20 34  1  0  0  0  0 
 21 35  1  0  0  0  0 
M  END
> <cdk:Title>
16379568

> <cdk:Remark>
null

> <PUBCHEM_COMPOUND_CID>
16379568

> <PUBCHEM_COMPOUND_CANONICALIZED>
1

> <PUBCHEM_CACTVS_COMPLEXITY>
456

> <PUBCHEM_CACTVS_HBOND_ACCEPTOR>
5

> <PUBCHEM_CACTVS_HBOND_DONOR>
0

> <PUBCHEM_CACTVS_ROTATABLE_BOND>
4

> <PUBCHEM_CACTVS_SUBSKEYS>
AAADccBzMYAAAAAAAAAAAAAAAAAAAWAAAAAwAAAAAAAAAAABAAAAHwAAAAAADQDBmAwzAIMAAACIAiFSEACCAAAgAAAIiACIBIiIYCKAkTGUIAhohyKIiAcQgAAOAAAAAAAAAAAAAAAAAAAAAAAAAAAAAA==

> <PUBCHEM_IUPAC_OPENEYE_NAME>
1-[(2,3-difluorophenyl)methyl]-3-isobutyl-imidazolidine-2,4,5-trione

> <PUBCHEM_IUPAC_CAS_NAME>
1-[(2,3-difluorophenyl)methyl]-3-(2-methylpropyl)imidazolidine-2,4,5-trione

> <PUBCHEM_IUPAC_NAME>
1-[(2,3-difluorophenyl)methyl]-3-(2-methylpropyl)imidazolidine-2,4,5-trione

> <PUBCHEM_IUPAC_SYSTEMATIC_NAME>
1-[[2,3-bis(fluoranyl)phenyl]methyl]-3-(2-methylpropyl)imidazolidine-2,4,5-trione

> <PUBCHEM_IUPAC_TRADITIONAL_NAME>
1-(2,3-difluorobenzyl)-3-isobutyl-imidazolidine-2,4,5-trione

> <PUBCHEM_IUPAC_INCHI>
InChI=1S/C14H14F2N2O3/c1-8(2)6-17-12(19)13(20)18(14(17)21)7-9-4-3-5-10(15)11(9)16/h3-5,8H,6-7H2,1-2H3

> <PUBCHEM_IUPAC_INCHIKEY>
BNJOVURAQNEBIC-UHFFFAOYSA-N

> <PUBCHEM_XLOGP3_AA>
2.5

> <PUBCHEM_EXACT_MASS>
296.097249

> <PUBCHEM_MOLECULAR_FORMULA>
C14H14F2N2O3

> <PUBCHEM_MOLECULAR_WEIGHT>
296.269366

> <PUBCHEM_OPENEYE_CAN_SMILES>
CC(C)CN1C(=O)C(=O)N(C1=O)CC2=C(C(=CC=C2)F)F

> <PUBCHEM_OPENEYE_ISO_SMILES>
CC(C)CN1C(=O)C(=O)N(C1=O)CC2=C(C(=CC=C2)F)F

> <PUBCHEM_CACTVS_TPSA>
57.7

> <PUBCHEM_MONOISOTOPIC_WEIGHT>
296.097249

> <PUBCHEM_TOTAL_CHARGE>
0

> <PUBCHEM_HEAVY_ATOM_COUNT>
21

> <PUBCHEM_ATOM_DEF_STEREO_COUNT>
0

> <PUBCHEM_ATOM_UDEF_STEREO_COUNT>
0

> <PUBCHEM_BOND_DEF_STEREO_COUNT>
0

> <PUBCHEM_BOND_UDEF_STEREO_COUNT>
0

> <PUBCHEM_ISOTOPIC_ATOM_COUNT>
0

> <PUBCHEM_COMPONENT_COUNT>
1

> <PUBCHEM_CACTVS_TAUTO_COUNT>
1

> <PUBCHEM_COORDINATE_TYPE>
1

> <PUBCHEM_BONDANNOTATIONS>
16  17  8

$$$$
16379568
  CDK     1227140956

 35 36  0  0  0  0  0  0  0  0999 V2000
    2.0000   -0.8080    0.0000 F   0  0  0  0  0  0  0  0  0  0  0  0
    2.0000   -2.8080    0.0000 F   0  0  0  0  0  0  0  0  0  0  0  0
    5.7195   -0.6929    0.0000 O   0  0  0  0  0  0  0  0  0  0  0  0
    6.0875    2.8080    0.0000 O   0  0  0  0  0  0  0  0  0  0  0  0
    3.9595    2.3557    0.0000 O   0  0  0  0  0  0  0  0  0  0  0  0
    6.1808    1.0284    0.0000 N   0  0  0  0  0  0  0  0  0  0  0  0
    4.5981    0.6920    0.0000 N   0  0  0  0  0  0  0  0  0  0  0  0
    7.7631    1.7329    0.0000 C   0  0  0  0  0  0  0  0  0  0  0  0
    7.1753    0.9239    0.0000 C   0  0  0  0  0  0  0  0  0  0  0  0
    5.5116    0.2853    0.0000 C   0  0  0  0  0  0  0  0  0  0  0  0
    3.7320    0.1920    0.0000 C   0  0  0  0  0  0  0  0  0  0  0  0
    5.6808    1.8944    0.0000 C   0  0  0  0  0  0  0  0  0  0  0  0
    8.7576    1.6284    0.0000 C   0  0  0  0  0  0  0  0  0  0  0  0
    7.3563    2.6465    0.0000 C   0  0  0  0  0  0  0  0  0  0  0  0
    4.7026    1.6865    0.0000 C   0  0  0  0  0  0  0  0  0  0  0  0
    3.7320   -0.8080    0.0000 C   0  0  0  0  0  0  0  0  0  0  0  0
    2.8660   -1.3080    0.0000 C   0  0  0  0  0  0  0  0  0  0  0  0
    4.5981   -1.3080    0.0000 C   0  0  0  0  0  0  0  0  0  0  0  0
    2.8660   -2.3080    0.0000 C   0  0  0  0  0  0  0  0  0  0  0  0
    4.5981   -2.3080    0.0000 C   0  0  0  0  0  0  0  0  0  0  0  0
    3.7320   -2.8080    0.0000 C   0  0  0  0  0  0  0  0  0  0  0  0
    8.1275    2.2345    0.0000 H   0  0  0  0  0  0  0  0  0  0  0  0
    7.0044    0.3279    0.0000 H   0  0  0  0  0  0  0  0  0  0  0  0
    7.7325    0.6521    0.0000 H   0  0  0  0  0  0  0  0  0  0  0  0
    3.5200    0.7746    0.0000 H   0  0  0  0  0  0  0  0  0  0  0  0
    3.1215    0.0843    0.0000 H   0  0  0  0  0  0  0  0  0  0  0  0
    7.9227    2.8986    0.0000 H   0  0  0  0  0  0  0  0  0  0  0  0
    7.1042    3.2128    0.0000 H   0  0  0  0  0  0  0  0  0  0  0  0
    8.6928    1.0118    0.0000 H   0  0  0  0  0  0  0  0  0  0  0  0
    9.3742    1.5636    0.0000 H   0  0  0  0  0  0  0  0  0  0  0  0
    8.8224    2.2450    0.0000 H   0  0  0  0  0  0  0  0  0  0  0  0
    6.7899    2.3943    0.0000 H   0  0  0  0  0  0  0  0  0  0  0  0
    5.1350   -0.9980    0.0000 H   0  0  0  0  0  0  0  0  0  0  0  0
    5.1350   -2.6180    0.0000 H   0  0  0  0  0  0  0  0  0  0  0  0
    3.7320   -3.4280    0.0000 H   0  0  0  0  0  0  0  0  0  0  0  0
  1 17  1  0  0  0  0 
  2 19  1  0  0  0  0 
  3 10  2  0  0  0  0 
  4 12  2  0  0  0  0 
  5 15  2  0  0  0  0 
  6  9  1  0  0  0  0 
  6 10  1  0  0  0  0 
  6 12  1  0  0  0  0 
  7 10  1  0  0  0  0 
  7 11  1  0  0  0  0 
  7 15  1  0  0  0  0 
  8  9  1  0  0  0  0 
  8 13  1  0  0  0  0 
  8 14  1  0  0  0  0 
  8 22  1  0  0  0  0 
  9 23  1  0  0  0  0 
  9 24  1  0  0  0  0 
 11 16  1  0  0  0  0 
 11 25  1  0  0  0  0 
 11 26  1  0  0  0  0 
 12 15  1  0  0  0  0 
 13 29  1  0  0  0  0 
 13 30  1  0  0  0  0 
 13 31  1  0  0  0  0 
 14 27  1  0  0  0  0 
 14 28  1  0  0  0  0 
 14 32  1  0  0  0  0 
 16 17  2  0  0  0  0 
 16 18  1  0  0  0  0 
 17 19  1  0  0  0  0 
 18 20  2  0  0  0  0 
 18 33  1  0  0  0  0 
 19 21  2  0  0  0  0 
 20 21  1  0  0  0  0 
 20 34  1  0  0  0  0 
 21 35  1  0  0  0  0 
M  END
> <cdk:Title>
16379568

> <cdk:Remark>
null

> <PUBCHEM_COMPOUND_CID>
16379568

> <PUBCHEM_COMPOUND_CANONICALIZED>
1

> <PUBCHEM_CACTVS_COMPLEXITY>
456

> <PUBCHEM_CACTVS_HBOND_ACCEPTOR>
5

> <PUBCHEM_CACTVS_HBOND_DONOR>
0

> <PUBCHEM_CACTVS_ROTATABLE_BOND>
4

> <PUBCHEM_CACTVS_SUBSKEYS>
AAADccBzMYAAAAAAAAAAAAAAAAAAAWAAAAAwAAAAAAAAAAABAAAAHwAAAAAADQDBmAwzAIMAAACIAiFSEACCAAAgAAAIiACIBIiIYCKAkTGUIAhohyKIiAcQgAAOAAAAAAAAAAAAAAAAAAAAAAAAAAAAAA==

> <PUBCHEM_IUPAC_OPENEYE_NAME>
1-[(2,3-difluorophenyl)methyl]-3-isobutyl-imidazolidine-2,4,5-trione

> <PUBCHEM_IUPAC_CAS_NAME>
1-[(2,3-difluorophenyl)methyl]-3-(2-methylpropyl)imidazolidine-2,4,5-trione

> <PUBCHEM_IUPAC_NAME>
1-[(2,3-difluorophenyl)methyl]-3-(2-methylpropyl)imidazolidine-2,4,5-trione

> <PUBCHEM_IUPAC_SYSTEMATIC_NAME>
1-[[2,3-bis(fluoranyl)phenyl]methyl]-3-(2-methylpropyl)imidazolidine-2,4,5-trione

> <PUBCHEM_IUPAC_TRADITIONAL_NAME>
1-(2,3-difluorobenzyl)-3-isobutyl-imidazolidine-2,4,5-trione

> <PUBCHEM_IUPAC_INCHI>
InChI=1S/C14H14F2N2O3/c1-8(2)6-17-12(19)13(20)18(14(17)21)7-9-4-3-5-10(15)11(9)16/h3-5,8H,6-7H2,1-2H3

> <PUBCHEM_IUPAC_INCHIKEY>
BNJOVURAQNEBIC-UHFFFAOYSA-N

> <PUBCHEM_XLOGP3_AA>
2.5

> <PUBCHEM_EXACT_MASS>
296.097249

> <PUBCHEM_MOLECULAR_FORMULA>
C14H14F2N2O3

> <PUBCHEM_MOLECULAR_WEIGHT>
296.269366

> <PUBCHEM_OPENEYE_CAN_SMILES>
CC(C)CN1C(=O)C(=O)N(C1=O)CC2=C(C(=CC=C2)F)F

> <PUBCHEM_OPENEYE_ISO_SMILES>
CC(C)CN1C(=O)C(=O)N(C1=O)CC2=C(C(=CC=C2)F)F

> <PUBCHEM_CACTVS_TPSA>
57.7

> <PUBCHEM_MONOISOTOPIC_WEIGHT>
296.097249

> <PUBCHEM_TOTAL_CHARGE>
0

> <PUBCHEM_HEAVY_ATOM_COUNT>
21

> <PUBCHEM_ATOM_DEF_STEREO_COUNT>
0

> <PUBCHEM_ATOM_UDEF_STEREO_COUNT>
0

> <PUBCHEM_BOND_DEF_STEREO_COUNT>
0

> <PUBCHEM_BOND_UDEF_STEREO_COUNT>
0

> <PUBCHEM_ISOTOPIC_ATOM_COUNT>
0

> <PUBCHEM_COMPONENT_COUNT>
1

> <PUBCHEM_CACTVS_TAUTO_COUNT>
1

> <PUBCHEM_COORDINATE_TYPE>
1

> <PUBCHEM_BONDANNOTATIONS>
16  17  8

$$$$
