49119455
  CDK     1227140956

 51 53  0  0  0  0  0  0  0  0999 V2000
    2.0000   -4.0000    0.0000 S   0  0  0  0  0  0  0  0  0  0  0  0
    8.0622   -1.5000    0.0000 O   0  0  0  0  0  0  0  0  0  0  0  0
    9.7942    3.5000    0.0000 O   0  0  0  0  0  0  0  0  0  0  0  0
    3.7320   -3.0000    0.0000 N   0  0  0  0  0  0  0  0  0  0  0  0
    6.3301   -1.5000    0.0000 N   0  0  0  0  0  0  0  0  0  0  0  0
    7.1962    0.0000    0.0000 N   0  0  0  0  0  0  0  0  0  0  0  0
    3.7320   -4.0000    0.0000 C   0  0  0  0  0  0  0  0  0  0  0  0
    2.8660   -2.5000    0.0000 C   0  0  0  0  0  0  0  0  0  0  0  0
    4.5981   -2.5000    0.0000 C   0  0  0  0  0  0  0  0  0  0  0  0
    2.8660   -4.5000    0.0000 C   0  0  0  0  0  0  0  0  0  0  0  0
    2.0000   -3.0000    0.0000 C   0  0  0  0  0  0  0  0  0  0  0  0
    5.4641   -3.0000    0.0000 C   0  0  0  0  0  0  0  0  0  0  0  0
    6.3301   -2.5000    0.0000 C   0  0  0  0  0  0  0  0  0  0  0  0
    5.4641   -4.0000    0.0000 C   0  0  0  0  0  0  0  0  0  0  0  0
    7.1962   -3.0000    0.0000 C   0  0  0  0  0  0  0  0  0  0  0  0
    6.3301   -4.5000    0.0000 C   0  0  0  0  0  0  0  0  0  0  0  0
    7.1962   -4.0000    0.0000 C   0  0  0  0  0  0  0  0  0  0  0  0
    7.1962   -1.0000    0.0000 C   0  0  0  0  0  0  0  0  0  0  0  0
    8.0622    0.5000    0.0000 C   0  0  0  0  0  0  0  0  0  0  0  0
    8.0622    1.5000    0.0000 C   0  0  0  0  0  0  0  0  0  0  0  0
    8.9282    2.0000    0.0000 C   0  0  0  0  0  0  0  0  0  0  0  0
    7.1962    2.0000    0.0000 C   0  0  0  0  0  0  0  0  0  0  0  0
    8.9282    3.0000    0.0000 C   0  0  0  0  0  0  0  0  0  0  0  0
    7.1962    3.0000    0.0000 C   0  0  0  0  0  0  0  0  0  0  0  0
    8.0622    3.5000    0.0000 C   0  0  0  0  0  0  0  0  0  0  0  0
    9.7942    4.5000    0.0000 C   0  0  0  0  0  0  0  0  0  0  0  0
    3.2646   -2.0250    0.0000 H   0  0  0  0  0  0  0  0  0  0  0  0
    2.4675   -2.0250    0.0000 H   0  0  0  0  0  0  0  0  0  0  0  0
    3.9441   -4.5826    0.0000 H   0  0  0  0  0  0  0  0  0  0  0  0
    4.3426   -3.8923    0.0000 H   0  0  0  0  0  0  0  0  0  0  0  0
    4.9966   -2.0250    0.0000 H   0  0  0  0  0  0  0  0  0  0  0  0
    4.1996   -2.0250    0.0000 H   0  0  0  0  0  0  0  0  0  0  0  0
    1.7880   -2.4174    0.0000 H   0  0  0  0  0  0  0  0  0  0  0  0
    1.3894   -3.1077    0.0000 H   0  0  0  0  0  0  0  0  0  0  0  0
    2.4675   -4.9750    0.0000 H   0  0  0  0  0  0  0  0  0  0  0  0
    3.2646   -4.9750    0.0000 H   0  0  0  0  0  0  0  0  0  0  0  0
    4.9272   -4.3100    0.0000 H   0  0  0  0  0  0  0  0  0  0  0  0
    7.7331   -2.6900    0.0000 H   0  0  0  0  0  0  0  0  0  0  0  0
    5.7932   -1.1900    0.0000 H   0  0  0  0  0  0  0  0  0  0  0  0
    6.3301   -5.1200    0.0000 H   0  0  0  0  0  0  0  0  0  0  0  0
    7.7331   -4.3100    0.0000 H   0  0  0  0  0  0  0  0  0  0  0  0
    8.2742   -0.0826    0.0000 H   0  0  0  0  0  0  0  0  0  0  0  0
    8.6728    0.6077    0.0000 H   0  0  0  0  0  0  0  0  0  0  0  0
    6.6592    0.3100    0.0000 H   0  0  0  0  0  0  0  0  0  0  0  0
    9.4651    1.6900    0.0000 H   0  0  0  0  0  0  0  0  0  0  0  0
    6.6592    1.6900    0.0000 H   0  0  0  0  0  0  0  0  0  0  0  0
    6.6592    3.3100    0.0000 H   0  0  0  0  0  0  0  0  0  0  0  0
    8.0622    4.1200    0.0000 H   0  0  0  0  0  0  0  0  0  0  0  0
   10.4142    4.5000    0.0000 H   0  0  0  0  0  0  0  0  0  0  0  0
    9.7942    5.1200    0.0000 H   0  0  0  0  0  0  0  0  0  0  0  0
    9.1742    4.5000    0.0000 H   0  0  0  0  0  0  0  0  0  0  0  0
  1 10  1  0  0  0  0 
  1 11  1  0  0  0  0 
  2 18  2  0  0  0  0 
  3 23  1  0  0  0  0 
  3 26  1  0  0  0  0 
  4  7  1  0  0  0  0 
  4  8  1  0  0  0  0 
  4  9  1  0  0  0  0 
  5 13  1  0  0  0  0 
  5 18  1  0  0  0  0 
  5 39  1  0  0  0  0 
  6 18  1  0  0  0  0 
  6 19  1  0  0  0  0 
  6 44  1  0  0  0  0 
  7 10  1  0  0  0  0 
  7 29  1  0  0  0  0 
  7 30  1  0  0  0  0 
  8 11  1  0  0  0  0 
  8 27  1  0  0  0  0 
  8 28  1  0  0  0  0 
  9 12  1  0  0  0  0 
  9 31  1  0  0  0  0 
  9 32  1  0  0  0  0 
 10 35  1  0  0  0  0 
 10 36  1  0  0  0  0 
 11 33  1  0  0  0  0 
 11 34  1  0  0  0  0 
 12 13  1  0  0  0  0 
 12 14  2  0  0  0  0 
 13 15  2  0  0  0  0 
 14 16  1  0  0  0  0 
 14 37  1  0  0  0  0 
 15 17  1  0  0  0  0 
 15 38  1  0  0  0  0 
 16 17  2  0  0  0  0 
 16 40  1  0  0  0  0 
 17 41  1  0  0  0  0 
 19 20  1  0  0  0  0 
 19 42  1  0  0  0  0 
 19 43  1  0  0  0  0 
 20 21  2  0  0  0  0 
 20 22  1  0  0  0  0 
 21 23  1  0  0  0  0 
 21 45  1  0  0  0  0 
 22 24  2  0  0  0  0 
 22 46  1  0  0  0  0 
 23 25  2  0  0  0  0 
 24 25  1  0  0  0  0 
 24 47  1  0  0  0  0 
 25 48  1  0  0  0  0 
 26 49  1  0  0  0  0 
 26 50  1  0  0  0  0 
 26 51  1  0  0  0  0 
M  END
> <cdk:Title>
49119455

> <cdk:Remark>
null

> <PUBCHEM_COMPOUND_CID>
49119455

> <PUBCHEM_COMPOUND_CANONICALIZED>
1

> <PUBCHEM_CACTVS_COMPLEXITY>
431

> <PUBCHEM_CACTVS_HBOND_ACCEPTOR>
4

> <PUBCHEM_CACTVS_HBOND_DONOR>
2

> <PUBCHEM_CACTVS_ROTATABLE_BOND>
6

> <PUBCHEM_CACTVS_SUBSKEYS>
AAADceB7MABAAAAAAAAAAAAAAAAAAAAAAAA8YIAAAAAAAAABQAAAHgQQAAAADAzF2AazxoPABAiIAiRCUACCCAAhIhAIiIAObIiMJiLE8ZuEMChs1hPo6CewwBAOAAABAAACAAAAAAIAAAQAAAAAAAAAAA==

> <PUBCHEM_IUPAC_OPENEYE_NAME>
1-[(3-methoxyphenyl)methyl]-3-[2-(thiomorpholinomethyl)phenyl]urea

> <PUBCHEM_IUPAC_CAS_NAME>
1-[(3-methoxyphenyl)methyl]-3-[2-(thiomorpholin-4-ylmethyl)phenyl]urea

> <PUBCHEM_IUPAC_NAME>
1-[(3-methoxyphenyl)methyl]-3-[2-(thiomorpholin-4-ylmethyl)phenyl]urea

> <PUBCHEM_IUPAC_SYSTEMATIC_NAME>
1-[(3-methoxyphenyl)methyl]-3-[2-(thiomorpholin-4-ylmethyl)phenyl]urea

> <PUBCHEM_IUPAC_TRADITIONAL_NAME>
1-m-anisyl-3-[2-(thiomorpholinomethyl)phenyl]urea

> <PUBCHEM_IUPAC_INCHI>
InChI=1S/C20H25N3O2S/c1-25-18-7-4-5-16(13-18)14-21-20(24)22-19-8-3-2-6-17(19)15-23-9-11-26-12-10-23/h2-8,13H,9-12,14-15H2,1H3,(H2,21,22,24)

> <PUBCHEM_IUPAC_INCHIKEY>
OHDBJUFIPXFCEO-UHFFFAOYSA-N

> <PUBCHEM_XLOGP3_AA>
2.7

> <PUBCHEM_EXACT_MASS>
371.166748

> <PUBCHEM_MOLECULAR_FORMULA>
C20H25N3O2S

> <PUBCHEM_MOLECULAR_WEIGHT>
371.4964

> <PUBCHEM_OPENEYE_CAN_SMILES>
COC1=CC=CC(=C1)CNC(=O)NC2=CC=CC=C2CN3CCSCC3

> <PUBCHEM_OPENEYE_ISO_SMILES>
COC1=CC=CC(=C1)CNC(=O)NC2=CC=CC=C2CN3CCSCC3

> <PUBCHEM_CACTVS_TPSA>
78.9

> <PUBCHEM_MONOISOTOPIC_WEIGHT>
371.166748

> <PUBCHEM_TOTAL_CHARGE>
0

> <PUBCHEM_HEAVY_ATOM_COUNT>
26

> <PUBCHEM_ATOM_DEF_STEREO_COUNT>
0

> <PUBCHEM_ATOM_UDEF_STEREO_COUNT>
0

> <PUBCHEM_BOND_DEF_STEREO_COUNT>
0

> <PUBCHEM_BOND_UDEF_STEREO_COUNT>
0

> <PUBCHEM_ISOTOPIC_ATOM_COUNT>
0

> <PUBCHEM_COMPONENT_COUNT>
1

> <PUBCHEM_CACTVS_TAUTO_COUNT>
3

> <PUBCHEM_COORDINATE_TYPE>
1

> <PUBCHEM_BONDANNOTATIONS>
12  13  8

$$$$
