57147570
  CDK     1229141458

 46 49  0  0  0  0  0  0  0  0999 V2000
    7.4149   -1.7058    0.0000 O   0  0  0  0  0  0  0  0  0  0  0  0
    2.0000   -1.7266    0.0000 O   0  0  0  0  0  0  0  0  0  0  0  0
    7.3931    0.3257    0.0000 C   0  0  2  0  0  0  0  0  0  0  0  0
    7.3931    1.3257    0.0000 C   0  0  2  0  0  0  0  0  0  0  0  0
    6.5271   -0.1743    0.0000 C   0  0  1  0  0  0  0  0  0  0  0  0
    5.6610    0.3257    0.0000 C   0  0  2  0  0  0  0  0  0  0  0  0
    6.5271    1.8257    0.0000 C   0  0  0  0  0  0  0  0  0  0  0  0
    5.6610    1.3257    0.0000 C   0  0  0  0  0  0  0  0  0  0  0  0
    8.3393    0.0210    0.0000 C   0  0  0  0  0  0  0  0  0  0  0  0
    8.3393    1.6304    0.0000 C   0  0  0  0  0  0  0  0  0  0  0  0
    4.7510   -0.1811    0.0000 C   0  0  2  0  0  0  0  0  0  0  0  0
    6.5431   -1.2158    0.0000 C   0  0  2  0  0  0  0  0  0  0  0  0
    8.9229    0.8257    0.0000 C   0  0  0  0  0  0  0  0  0  0  0  0
    7.3931    2.3257    0.0000 C   0  0  0  0  0  0  0  0  0  0  0  0
    5.6451   -1.7436    0.0000 C   0  0  0  0  0  0  0  0  0  0  0  0
    4.7430   -1.2227    0.0000 C   0  0  0  0  0  0  0  0  0  0  0  0
    3.8242    0.3829    0.0000 C   0  0  0  0  0  0  0  0  0  0  0  0
    2.8763   -0.1450    0.0000 C   0  0  0  0  0  0  0  0  0  0  0  0
    3.8076   -1.7725    0.0000 C   0  0  0  0  0  0  0  0  0  0  0  0
    2.8680   -1.2300    0.0000 C   0  0  0  0  0  0  0  0  0  0  0  0
    7.4830   -0.5195    0.0000 H   0  0  0  0  0  0  0  0  0  0  0  0
    7.2664   -0.5936    0.0000 H   0  0  0  0  0  0  0  0  0  0  0  0
    6.3972    0.7507    0.0000 H   0  0  0  0  0  0  0  0  0  0  0  0
    6.9256    2.3007    0.0000 H   0  0  0  0  0  0  0  0  0  0  0  0
    6.1285    2.3007    0.0000 H   0  0  0  0  0  0  0  0  0  0  0  0
    5.4490    1.9083    0.0000 H   0  0  0  0  0  0  0  0  0  0  0  0
    5.0504    1.2180    0.0000 H   0  0  0  0  0  0  0  0  0  0  0  0
    8.0883   -0.5459    0.0000 H   0  0  0  0  0  0  0  0  0  0  0  0
    8.8767   -0.2882    0.0000 H   0  0  0  0  0  0  0  0  0  0  0  0
    8.8767    1.9397    0.0000 H   0  0  0  0  0  0  0  0  0  0  0  0
    8.0883    2.1974    0.0000 H   0  0  0  0  0  0  0  0  0  0  0  0
    4.7674    0.6687    0.0000 H   0  0  0  0  0  0  0  0  0  0  0  0
    6.5491   -1.8358    0.0000 H   0  0  0  0  0  0  0  0  0  0  0  0
    9.3838    0.4110    0.0000 H   0  0  0  0  0  0  0  0  0  0  0  0
    9.3838    1.2404    0.0000 H   0  0  0  0  0  0  0  0  0  0  0  0
    8.0131    2.3257    0.0000 H   0  0  0  0  0  0  0  0  0  0  0  0
    7.3931    2.9457    0.0000 H   0  0  0  0  0  0  0  0  0  0  0  0
    6.7731    2.3257    0.0000 H   0  0  0  0  0  0  0  0  0  0  0  0
    5.2478   -2.2195    0.0000 H   0  0  0  0  0  0  0  0  0  0  0  0
    6.0460   -2.2164    0.0000 H   0  0  0  0  0  0  0  0  0  0  0  0
    4.2324    0.8496    0.0000 H   0  0  0  0  0  0  0  0  0  0  0  0
    3.4343    0.8650    0.0000 H   0  0  0  0  0  0  0  0  0  0  0  0
    2.6718    0.4403    0.0000 H   0  0  0  0  0  0  0  0  0  0  0  0
    2.2647   -0.2464    0.0000 H   0  0  0  0  0  0  0  0  0  0  0  0
    3.8100   -2.3925    0.0000 H   0  0  0  0  0  0  0  0  0  0  0  0
    7.4220   -2.3257    0.0000 H   0  0  0  0  0  0  0  0  0  0  0  0
 12  1  1  1  0  0  0 
  1 46  1  0  0  0  0 
  2 20  2  0  0  0  0 
  3  4  1  0  0  0  0 
  3  5  1  0  0  0  0 
  3  9  1  0  0  0  0 
  3 21  1  6  0  0  0 
  4  7  1  0  0  0  0 
  4 10  1  0  0  0  0 
  4 14  1  1  0  0  0 
  5  6  1  0  0  0  0 
  5 12  1  0  0  0  0 
  5 22  1  1  0  0  0 
  6  8  1  0  0  0  0 
  6 11  1  0  0  0  0 
  6 23  1  6  0  0  0 
  7  8  1  0  0  0  0 
  7 24  1  0  0  0  0 
  7 25  1  0  0  0  0 
  8 26  1  0  0  0  0 
  8 27  1  0  0  0  0 
  9 13  1  0  0  0  0 
  9 28  1  0  0  0  0 
  9 29  1  0  0  0  0 
 10 13  1  0  0  0  0 
 10 30  1  0  0  0  0 
 10 31  1  0  0  0  0 
 11 16  1  0  0  0  0 
 11 17  1  0  0  0  0 
 11 32  1  1  0  0  0 
 12 15  1  0  0  0  0 
 12 33  1  0  0  0  0 
 13 34  1  0  0  0  0 
 13 35  1  0  0  0  0 
 14 36  1  0  0  0  0 
 14 37  1  0  0  0  0 
 14 38  1  0  0  0  0 
 15 16  1  0  0  0  0 
 15 39  1  0  0  0  0 
 15 40  1  0  0  0  0 
 16 19  2  0  0  0  0 
 17 18  1  0  0  0  0 
 17 41  1  0  0  0  0 
 17 42  1  0  0  0  0 
 18 20  1  0  0  0  0 
 18 43  1  0  0  0  0 
 18 44  1  0  0  0  0 
 19 20  1  0  0  0  0 
 19 45  1  0  0  0  0 
M  END
> <cdk:Title>
57147570

> <cdk:Remark>
null

> <PUBCHEM_COMPOUND_CID>
57147570

> <PUBCHEM_COMPOUND_CANONICALIZED>
1

> <PUBCHEM_CACTVS_COMPLEXITY>
466

> <PUBCHEM_CACTVS_HBOND_ACCEPTOR>
2

> <PUBCHEM_CACTVS_HBOND_DONOR>
1

> <PUBCHEM_CACTVS_ROTATABLE_BOND>
0

> <PUBCHEM_CACTVS_SUBSKEYS>
AAADceB4MAAAAAAAAAAAAAAAAAAAAYAAAAAwYIAAAAAAAGDAAAAAGgAACAAADxSggAICAAAAAgCIAqBSAAAAAAAgAAAACAEAAEgAEBIAAQAAQAAEwAAIAQOIyPCPgAAAAAAAAADAAAYAADAAAAAACAAAAA==

> <PUBCHEM_IUPAC_OPENEYE_NAME>
(7S,8R,9R,10R,13S,14S)-7-hydroxy-13-methyl-2,6,7,8,9,10,11,12,14,15,16,17-dodecahydro-1H-cyclopenta[a]phenanthren-3-one

> <PUBCHEM_IUPAC_CAS_NAME>
(7S,8R,9R,10R,13S,14S)-7-hydroxy-13-methyl-2,6,7,8,9,10,11,12,14,15,16,17-dodecahydro-1H-cyclopenta[a]phenanthren-3-one

> <PUBCHEM_IUPAC_NAME>
(7S,8R,9R,10R,13S,14S)-7-hydroxy-13-methyl-2,6,7,8,9,10,11,12,14,15,16,17-dodecahydro-1H-cyclopenta[a]phenanthren-3-one

> <PUBCHEM_IUPAC_SYSTEMATIC_NAME>
(7S,8R,9R,10R,13S,14S)-13-methyl-7-oxidanyl-2,6,7,8,9,10,11,12,14,15,16,17-dodecahydro-1H-cyclopenta[a]phenanthren-3-one

> <PUBCHEM_IUPAC_TRADITIONAL_NAME>
(7S,8R,9R,10R,13S,14S)-7-hydroxy-13-methyl-2,6,7,8,9,10,11,12,14,15,16,17-dodecahydro-1H-cyclopenta[a]phenanthren-3-one

> <PUBCHEM_IUPAC_INCHI>
InChI=1S/C18H26O2/c1-18-7-2-3-15(18)17-14(6-8-18)13-5-4-12(19)9-11(13)10-16(17)20/h9,13-17,20H,2-8,10H2,1H3/t13-,14+,15-,16-,17+,18-/m0/s1

> <PUBCHEM_IUPAC_INCHIKEY>
GRIITYJCBJMDNU-MULDDASSSA-N

> <PUBCHEM_XLOGP3_AA>
3.3

> <PUBCHEM_EXACT_MASS>
274.19328

> <PUBCHEM_MOLECULAR_FORMULA>
C18H26O2

> <PUBCHEM_MOLECULAR_WEIGHT>
274.39784

> <PUBCHEM_OPENEYE_CAN_SMILES>
CC12CCCC1C3C(CC2)C4CCC(=O)C=C4CC3O

> <PUBCHEM_OPENEYE_ISO_SMILES>
C[C@@]12CCC[C@H]1[C@H]3[C@H](CC2)[C@H]4CCC(=O)C=C4C[C@@H]3O

> <PUBCHEM_CACTVS_TPSA>
37.3

> <PUBCHEM_MONOISOTOPIC_WEIGHT>
274.19328

> <PUBCHEM_TOTAL_CHARGE>
0

> <PUBCHEM_HEAVY_ATOM_COUNT>
20

> <PUBCHEM_ATOM_DEF_STEREO_COUNT>
6

> <PUBCHEM_ATOM_UDEF_STEREO_COUNT>
0

> <PUBCHEM_BOND_DEF_STEREO_COUNT>
0

> <PUBCHEM_BOND_UDEF_STEREO_COUNT>
0

> <PUBCHEM_ISOTOPIC_ATOM_COUNT>
0

> <PUBCHEM_COMPONENT_COUNT>
1

> <PUBCHEM_CACTVS_TAUTO_COUNT>
8

> <PUBCHEM_COORDINATE_TYPE>
1

> <PUBCHEM_BONDANNOTATIONS>
12  1  5

$$$$
57147570
  CDK     1229141458

 46 49  0  0  0  0  0  0  0  0999 V2000
    7.4149   -1.7058    0.0000 O   0  0  0  0  0  0  0  0  0  0  0  0
    2.0000   -1.7266    0.0000 O   0  0  0  0  0  0  0  0  0  0  0  0
    7.3931    0.3257    0.0000 C   0  0  2  0  0  0  0  0  0  0  0  0
    7.3931    1.3257    0.0000 C   0  0  2  0  0  0  0  0  0  0  0  0
    6.5271   -0.1743    0.0000 C   0  0  1  0  0  0  0  0  0  0  0  0
    5.6610    0.3257    0.0000 C   0  0  2  0  0  0  0  0  0  0  0  0
    6.5271    1.8257    0.0000 C   0  0  0  0  0  0  0  0  0  0  0  0
    5.6610    1.3257    0.0000 C   0  0  0  0  0  0  0  0  0  0  0  0
    8.3393    0.0210    0.0000 C   0  0  0  0  0  0  0  0  0  0  0  0
    8.3393    1.6304    0.0000 C   0  0  0  0  0  0  0  0  0  0  0  0
    4.7510   -0.1811    0.0000 C   0  0  2  0  0  0  0  0  0  0  0  0
    6.5431   -1.2158    0.0000 C   0  0  2  0  0  0  0  0  0  0  0  0
    8.9229    0.8257    0.0000 C   0  0  0  0  0  0  0  0  0  0  0  0
    7.3931    2.3257    0.0000 C   0  0  0  0  0  0  0  0  0  0  0  0
    5.6451   -1.7436    0.0000 C   0  0  0  0  0  0  0  0  0  0  0  0
    4.7430   -1.2227    0.0000 C   0  0  0  0  0  0  0  0  0  0  0  0
    3.8242    0.3829    0.0000 C   0  0  0  0  0  0  0  0  0  0  0  0
    2.8763   -0.1450    0.0000 C   0  0  0  0  0  0  0  0  0  0  0  0
    3.8076   -1.7725    0.0000 C   0  0  0  0  0  0  0  0  0  0  0  0
    2.8680   -1.2300    0.0000 C   0  0  0  0  0  0  0  0  0  0  0  0
    7.4830   -0.5195    0.0000 H   0  0  0  0  0  0  0  0  0  0  0  0
    7.2664   -0.5936    0.0000 H   0  0  0  0  0  0  0  0  0  0  0  0
    6.3972    0.7507    0.0000 H   0  0  0  0  0  0  0  0  0  0  0  0
    6.9256    2.3007    0.0000 H   0  0  0  0  0  0  0  0  0  0  0  0
    6.1285    2.3007    0.0000 H   0  0  0  0  0  0  0  0  0  0  0  0
    5.4490    1.9083    0.0000 H   0  0  0  0  0  0  0  0  0  0  0  0
    5.0504    1.2180    0.0000 H   0  0  0  0  0  0  0  0  0  0  0  0
    8.0883   -0.5459    0.0000 H   0  0  0  0  0  0  0  0  0  0  0  0
    8.8767   -0.2882    0.0000 H   0  0  0  0  0  0  0  0  0  0  0  0
    8.8767    1.9397    0.0000 H   0  0  0  0  0  0  0  0  0  0  0  0
    8.0883    2.1974    0.0000 H   0  0  0  0  0  0  0  0  0  0  0  0
    4.7674    0.6687    0.0000 H   0  0  0  0  0  0  0  0  0  0  0  0
    6.5491   -1.8358    0.0000 H   0  0  0  0  0  0  0  0  0  0  0  0
    9.3838    0.4110    0.0000 H   0  0  0  0  0  0  0  0  0  0  0  0
    9.3838    1.2404    0.0000 H   0  0  0  0  0  0  0  0  0  0  0  0
    8.0131    2.3257    0.0000 H   0  0  0  0  0  0  0  0  0  0  0  0
    7.3931    2.9457    0.0000 H   0  0  0  0  0  0  0  0  0  0  0  0
    6.7731    2.3257    0.0000 H   0  0  0  0  0  0  0  0  0  0  0  0
    5.2478   -2.2195    0.0000 H   0  0  0  0  0  0  0  0  0  0  0  0
    6.0460   -2.2164    0.0000 H   0  0  0  0  0  0  0  0  0  0  0  0
    4.2324    0.8496    0.0000 H   0  0  0  0  0  0  0  0  0  0  0  0
    3.4343    0.8650    0.0000 H   0  0  0  0  0  0  0  0  0  0  0  0
    2.6718    0.4403    0.0000 H   0  0  0  0  0  0  0  0  0  0  0  0
    2.2647   -0.2464    0.0000 H   0  0  0  0  0  0  0  0  0  0  0  0
    3.8100   -2.3925    0.0000 H   0  0  0  0  0  0  0  0  0  0  0  0
    7.4220   -2.3257    0.0000 H   0  0  0  0  0  0  0  0  0  0  0  0
 12  1  1  1  0  0  0 
  1 46  1  0  0  0  0 
  2 20  2  0  0  0  0 
  3  4  1  0  0  0  0 
  3  5  1  0  0  0  0 
  3  9  1  0  0  0  0 
  3 21  1  6  0  0  0 
  4  7  1  0  0  0  0 
  4 10  1  0  0  0  0 
  4 14  1  1  0  0  0 
  5  6  1  0  0  0  0 
  5 12  1  0  0  0  0 
  5 22  1  1  0  0  0 
  6  8  1  0  0  0  0 
  6 11  1  0  0  0  0 
  6 23  1  6  0  0  0 
  7  8  1  0  0  0  0 
  7 24  1  0  0  0  0 
  7 25  1  0  0  0  0 
  8 26  1  0  0  0  0 
  8 27  1  0  0  0  0 
  9 13  1  0  0  0  0 
  9 28  1  0  0  0  0 
  9 29  1  0  0  0  0 
 10 13  1  0  0  0  0 
 10 30  1  0  0  0  0 
 10 31  1  0  0  0  0 
 11 16  1  0  0  0  0 
 11 17  1  0  0  0  0 
 11 32  1  1  0  0  0 
 12 15  1  0  0  0  0 
 12 33  1  0  0  0  0 
 13 34  1  0  0  0  0 
 13 35  1  0  0  0  0 
 14 36  1  0  0  0  0 
 14 37  1  0  0  0  0 
 14 38  1  0  0  0  0 
 15 16  1  0  0  0  0 
 15 39  1  0  0  0  0 
 15 40  1  0  0  0  0 
 16 19  2  0  0  0  0 
 17 18  1  0  0  0  0 
 17 41  1  0  0  0  0 
 17 42  1  0  0  0  0 
 18 20  1  0  0  0  0 
 18 43  1  0  0  0  0 
 18 44  1  0  0  0  0 
 19 20  1  0  0  0  0 
 19 45  1  0  0  0  0 
M  END
> <cdk:Title>
57147570

> <cdk:Remark>
null

> <PUBCHEM_COMPOUND_CID>
57147570

> <PUBCHEM_COMPOUND_CANONICALIZED>
1

> <PUBCHEM_CACTVS_COMPLEXITY>
466

> <PUBCHEM_CACTVS_HBOND_ACCEPTOR>
2

> <PUBCHEM_CACTVS_HBOND_DONOR>
1

> <PUBCHEM_CACTVS_ROTATABLE_BOND>
0

> <PUBCHEM_CACTVS_SUBSKEYS>
AAADceB4MAAAAAAAAAAAAAAAAAAAAYAAAAAwYIAAAAAAAGDAAAAAGgAACAAADxSggAICAAAAAgCIAqBSAAAAAAAgAAAACAEAAEgAEBIAAQAAQAAEwAAIAQOIyPCPgAAAAAAAAADAAAYAADAAAAAACAAAAA==

> <PUBCHEM_IUPAC_OPENEYE_NAME>
(7S,8R,9R,10R,13S,14S)-7-hydroxy-13-methyl-2,6,7,8,9,10,11,12,14,15,16,17-dodecahydro-1H-cyclopenta[a]phenanthren-3-one

> <PUBCHEM_IUPAC_CAS_NAME>
(7S,8R,9R,10R,13S,14S)-7-hydroxy-13-methyl-2,6,7,8,9,10,11,12,14,15,16,17-dodecahydro-1H-cyclopenta[a]phenanthren-3-one

> <PUBCHEM_IUPAC_NAME>
(7S,8R,9R,10R,13S,14S)-7-hydroxy-13-methyl-2,6,7,8,9,10,11,12,14,15,16,17-dodecahydro-1H-cyclopenta[a]phenanthren-3-one

> <PUBCHEM_IUPAC_SYSTEMATIC_NAME>
(7S,8R,9R,10R,13S,14S)-13-methyl-7-oxidanyl-2,6,7,8,9,10,11,12,14,15,16,17-dodecahydro-1H-cyclopenta[a]phenanthren-3-one

> <PUBCHEM_IUPAC_TRADITIONAL_NAME>
(7S,8R,9R,10R,13S,14S)-7-hydroxy-13-methyl-2,6,7,8,9,10,11,12,14,15,16,17-dodecahydro-1H-cyclopenta[a]phenanthren-3-one

> <PUBCHEM_IUPAC_INCHI>
InChI=1S/C18H26O2/c1-18-7-2-3-15(18)17-14(6-8-18)13-5-4-12(19)9-11(13)10-16(17)20/h9,13-17,20H,2-8,10H2,1H3/t13-,14+,15-,16-,17+,18-/m0/s1

> <PUBCHEM_IUPAC_INCHIKEY>
GRIITYJCBJMDNU-MULDDASSSA-N

> <PUBCHEM_XLOGP3_AA>
3.3

> <PUBCHEM_EXACT_MASS>
274.19328

> <PUBCHEM_MOLECULAR_FORMULA>
C18H26O2

> <PUBCHEM_MOLECULAR_WEIGHT>
274.39784

> <PUBCHEM_OPENEYE_CAN_SMILES>
CC12CCCC1C3C(CC2)C4CCC(=O)C=C4CC3O

> <PUBCHEM_OPENEYE_ISO_SMILES>
C[C@@]12CCC[C@H]1[C@H]3[C@H](CC2)[C@H]4CCC(=O)C=C4C[C@@H]3O

> <PUBCHEM_CACTVS_TPSA>
37.3

> <PUBCHEM_MONOISOTOPIC_WEIGHT>
274.19328

> <PUBCHEM_TOTAL_CHARGE>
0

> <PUBCHEM_HEAVY_ATOM_COUNT>
20

> <PUBCHEM_ATOM_DEF_STEREO_COUNT>
6

> <PUBCHEM_ATOM_UDEF_STEREO_COUNT>
0

> <PUBCHEM_BOND_DEF_STEREO_COUNT>
0

> <PUBCHEM_BOND_UDEF_STEREO_COUNT>
0

> <PUBCHEM_ISOTOPIC_ATOM_COUNT>
0

> <PUBCHEM_COMPONENT_COUNT>
1

> <PUBCHEM_CACTVS_TAUTO_COUNT>
8

> <PUBCHEM_COORDINATE_TYPE>
1

> <PUBCHEM_BONDANNOTATIONS>
12  1  5

$$$$
