
  CDK     1227140956

 25 28  0  0  0  0  0  0  0  0999 V2000
    9.2619    2.4330    0.0000 N   0  0  0  0  0  0  0  0  0  0  0  0
   11.2619    2.4330    0.0000 N   0  0  0  0  0  0  0  0  0  0  0  0
    6.7619    1.5670    0.0000 N   0  0  0  0  0  0  0  0  0  0  0  0
    3.7320    1.2010    0.0000 N   0  0  0  0  0  0  0  0  0  0  0  0
    4.6783   -0.1038    0.0000 N   0  0  0  0  0  0  0  0  0  0  0  0
    2.0000    0.2010    0.0000 N   0  0  0  0  0  0  0  0  0  0  0  0
    9.7619    1.5670    0.0000 C   0  0  0  0  0  0  0  0  0  0  0  0
    9.7619    3.2990    0.0000 C   0  0  0  0  0  0  0  0  0  0  0  0
   10.7619    3.2990    0.0000 C   0  0  0  0  0  0  0  0  0  0  0  0
   10.7619    1.5670    0.0000 C   0  0  0  0  0  0  0  0  0  0  0  0
    8.2619    2.4330    0.0000 C   0  0  0  0  0  0  0  0  0  0  0  0
    7.7619    1.5670    0.0000 C   0  0  0  0  0  0  0  0  0  0  0  0
    6.2619    0.7010    0.0000 C   0  0  0  0  0  0  0  0  0  0  0  0
    5.2619    0.7010    0.0000 C   0  0  0  0  0  0  0  0  0  0  0  0
    3.7320    0.2010    0.0000 C   0  0  0  0  0  0  0  0  0  0  0  0
    4.6783    1.5057    0.0000 C   0  0  0  0  0  0  0  0  0  0  0  0
    2.8660   -0.2990    0.0000 C   0  0  0  0  0  0  0  0  0  0  0  0
    2.8660    1.7010    0.0000 C   0  0  0  0  0  0  0  0  0  0  0  0
    2.8660   -1.2990    0.0000 C   0  0  0  0  0  0  0  0  0  0  0  0
    2.0000    1.2010    0.0000 C   0  0  0  0  0  0  0  0  0  0  0  0
    2.0000   -1.7990    0.0000 C   0  0  0  0  0  0  0  0  0  0  0  0
    3.7320   -1.7990    0.0000 C   0  0  0  0  0  0  0  0  0  0  0  0
    2.0000   -2.7990    0.0000 C   0  0  0  0  0  0  0  0  0  0  0  0
    3.7320   -2.7990    0.0000 C   0  0  0  0  0  0  0  0  0  0  0  0
    2.8660   -3.2990    0.0000 C   0  0  0  0  0  0  0  0  0  0  0  0
  1  7  1  0  0  0  0 
  1  8  1  0  0  0  0 
  1 11  1  0  0  0  0 
  2  9  1  0  0  0  0 
  2 10  1  0  0  0  0 
  3 12  1  0  0  0  0 
  3 13  1  0  0  0  0 
  4 15  1  0  0  0  0 
  4 16  1  0  0  0  0 
  4 18  1  0  0  0  0 
  5 14  1  0  0  0  0 
  5 15  1  0  0  0  0 
  6 17  1  0  0  0  0 
  6 20  1  0  0  0  0 
  7 10  1  0  0  0  0 
  8  9  1  0  0  0  0 
 11 12  1  0  0  0  0 
 13 14  1  0  0  0  0 
 14 16  1  0  0  0  0 
 15 17  1  0  0  0  0 
 17 19  1  0  0  0  0 
 18 20  1  0  0  0  0 
 19 21  1  0  0  0  0 
 19 22  1  0  0  0  0 
 21 23  1  0  0  0  0 
 22 24  1  0  0  0  0 
 23 25  1  0  0  0  0 
 24 25  1  0  0  0  0 
M  END
> <PUBCHEM_COMPOUND_CID>
53188891

$$$$

  CDK     1227140956

 25 28  0  0  0  0  0  0  0  0999 V2000
    3.7281    1.5486    0.0000 S   0  0  0  0  0  0  0  0  0  0  0  0
    2.3660   -1.8965    0.0000 S   0  0  0  0  0  0  0  0  0  0  0  0
    5.3159    6.4353    0.0000 O   0  0  0  0  0  0  0  0  0  0  0  0
    4.0069    3.3087    0.0000 N   0  0  0  0  0  0  0  0  0  0  0  0
    5.6249    3.3087    0.0000 N   0  0  0  0  0  0  0  0  0  0  0  0
    5.3159    2.3576    0.0000 N   0  0  0  0  0  0  0  0  0  0  0  0
    3.6750   -2.8476    0.0000 N   0  0  0  0  0  0  0  0  0  0  0  0
    4.8159    3.8965    0.0000 C   0  0  0  0  0  0  0  0  0  0  0  0
    4.8159    4.8965    0.0000 C   0  0  0  0  0  0  0  0  0  0  0  0
    3.9538   -1.0875    0.0000 C   0  0  2  0  0  0  0  0  0  0  0  0
    4.3159    2.3576    0.0000 C   0  0  0  0  0  0  0  0  0  0  0  0
    5.6249    5.4843    0.0000 C   0  0  0  0  0  0  0  0  0  0  0  0
    4.1349    0.6351    0.0000 C   0  0  0  0  0  0  0  0  0  0  0  0
    3.5471   -0.1739    0.0000 C   0  0  0  0  0  0  0  0  0  0  0  0
    3.3660   -1.8965    0.0000 C   0  0  0  0  0  0  0  0  0  0  0  0
    4.0069    5.4843    0.0000 C   0  0  0  0  0  0  0  0  0  0  0  0
    2.8660   -3.4353    0.0000 C   0  0  0  0  0  0  0  0  0  0  0  0
    2.8660   -4.4353    0.0000 C   0  0  0  0  0  0  0  0  0  0  0  0
    4.3159    6.4353    0.0000 C   0  0  0  0  0  0  0  0  0  0  0  0
    2.0570   -2.8476    0.0000 C   0  0  0  0  0  0  0  0  0  0  0  0
    3.7320   -4.9353    0.0000 C   0  0  0  0  0  0  0  0  0  0  0  0
    2.0000   -4.9353    0.0000 C   0  0  0  0  0  0  0  0  0  0  0  0
    3.7320   -5.9353    0.0000 C   0  0  0  0  0  0  0  0  0  0  0  0
    2.0000   -5.9353    0.0000 C   0  0  0  0  0  0  0  0  0  0  0  0
    2.8660   -6.4353    0.0000 C   0  0  0  0  0  0  0  0  0  0  0  0
  1 11  1  0  0  0  0 
  1 13  1  0  0  0  0 
  2 15  1  0  0  0  0 
  2 20  1  0  0  0  0 
  3 12  1  0  0  0  0 
  3 19  1  0  0  0  0 
  4  8  1  0  0  0  0 
  4 11  1  0  0  0  0 
  5  6  1  0  0  0  0 
  5  8  1  0  0  0  0 
  6 11  1  0  0  0  0 
  7 15  1  0  0  0  0 
  7 17  1  0  0  0  0 
  8  9  1  0  0  0  0 
  9 12  1  0  0  0  0 
  9 16  1  0  0  0  0 
 10 14  1  0  0  0  0 
 10 15  1  0  0  0  0 
 13 14  1  0  0  0  0 
 16 19  1  0  0  0  0 
 17 18  1  0  0  0  0 
 17 20  1  0  0  0  0 
 18 21  1  0  0  0  0 
 18 22  1  0  0  0  0 
 21 23  1  0  0  0  0 
 22 24  1  0  0  0  0 
 23 25  1  0  0  0  0 
 24 25  1  0  0  0  0 
M  END
> <PUBCHEM_COMPOUND_CID>
40099516

$$$$

  CDK     1227140956

 25 28  0  0  0  0  0  0  0  0999 V2000
    5.5116    2.7615    0.0000 O   0  0  0  0  0  0  0  0  0  0  0  0
    3.7320    1.6682    0.0000 N   0  0  0  0  0  0  0  0  0  0  0  0
    2.8660   -2.8318    0.0000 N   0  0  0  0  0  0  0  0  0  0  0  0
    2.3660   -4.3706    0.0000 N   0  0  0  0  0  0  0  0  0  0  0  0
    2.8660    1.1682    0.0000 C   0  0  1  0  0  0  0  0  0  0  0  0
    2.8660    0.1682    0.0000 C   0  0  0  0  0  0  0  0  0  0  0  0
    3.7320   -0.3318    0.0000 C   0  0  0  0  0  0  0  0  0  0  0  0
    2.0000   -0.3318    0.0000 C   0  0  0  0  0  0  0  0  0  0  0  0
    2.8660   -1.8318    0.0000 C   0  0  0  0  0  0  0  0  0  0  0  0
    3.7320   -1.3318    0.0000 C   0  0  0  0  0  0  0  0  0  0  0  0
    2.0000   -1.3318    0.0000 C   0  0  0  0  0  0  0  0  0  0  0  0
    3.7320    2.6682    0.0000 C   0  0  0  0  0  0  0  0  0  0  0  0
    4.5981    3.1682    0.0000 C   0  0  0  0  0  0  0  0  0  0  0  0
    6.1808    3.5046    0.0000 C   0  0  0  0  0  0  0  0  0  0  0  0
    7.1753    3.4001    0.0000 C   0  0  0  0  0  0  0  0  0  0  0  0
    4.7026    4.1627    0.0000 C   0  0  0  0  0  0  0  0  0  0  0  0
    5.6808    4.3706    0.0000 C   0  0  0  0  0  0  0  0  0  0  0  0
    7.5820    2.4865    0.0000 C   0  0  0  0  0  0  0  0  0  0  0  0
    7.7631    4.2091    0.0000 C   0  0  0  0  0  0  0  0  0  0  0  0
    3.6750   -3.4196    0.0000 C   0  0  0  0  0  0  0  0  0  0  0  0
    2.0570   -3.4196    0.0000 C   0  0  0  0  0  0  0  0  0  0  0  0
    9.1643    3.1910    0.0000 C   0  0  0  0  0  0  0  0  0  0  0  0
    8.5765    2.3820    0.0000 C   0  0  0  0  0  0  0  0  0  0  0  0
    8.7576    4.1046    0.0000 C   0  0  0  0  0  0  0  0  0  0  0  0
    3.3660   -4.3706    0.0000 C   0  0  0  0  0  0  0  0  0  0  0  0
  1 13  1  0  0  0  0 
  1 14  1  0  0  0  0 
  5  2  1  1  0  0  0 
  2 12  1  0  0  0  0 
  3  9  1  0  0  0  0 
  3 20  1  0  0  0  0 
  3 21  1  0  0  0  0 
  4 21  1  0  0  0  0 
  4 25  1  0  0  0  0 
  5  6  1  0  0  0  0 
  6  7  1  0  0  0  0 
  6  8  1  0  0  0  0 
  7 10  1  0  0  0  0 
  8 11  1  0  0  0  0 
  9 10  1  0  0  0  0 
  9 11  1  0  0  0  0 
 12 13  1  0  0  0  0 
 13 16  1  0  0  0  0 
 14 15  1  0  0  0  0 
 14 17  1  0  0  0  0 
 15 18  1  0  0  0  0 
 15 19  1  0  0  0  0 
 16 17  1  0  0  0  0 
 18 23  1  0  0  0  0 
 19 24  1  0  0  0  0 
 20 25  1  0  0  0  0 
 22 23  1  0  0  0  0 
 22 24  1  0  0  0  0 
M  END
> <PUBCHEM_COMPOUND_CID>
40704817

$$$$

  CDK     1227140956

 25 28  0  0  0  0  0  0  0  0999 V2000
    4.5981    2.5000    0.0000 N   0  0  0  0  0  0  0  0  0  0  0  0
    5.4641    1.0000    0.0000 N   0  0  0  0  0  0  0  0  0  0  0  0
    6.3301   -1.5000    0.0000 N   0  0  0  0  0  0  0  0  0  0  0  0
    3.7320    3.0000    0.0000 C   0  0  0  0  0  0  0  0  0  0  0  0
    3.7320    4.0000    0.0000 C   0  0  0  0  0  0  0  0  0  0  0  0
    2.8660    2.5000    0.0000 C   0  0  0  0  0  0  0  0  0  0  0  0
    2.8660    4.5000    0.0000 C   0  0  0  0  0  0  0  0  0  0  0  0
    2.0000    3.0000    0.0000 C   0  0  0  0  0  0  0  0  0  0  0  0
    2.0000    4.0000    0.0000 C   0  0  0  0  0  0  0  0  0  0  0  0
    4.5981    1.5000    0.0000 C   0  0  0  0  0  0  0  0  0  0  0  0
    5.4641    3.0000    0.0000 C   0  0  0  0  0  0  0  0  0  0  0  0
    6.3301    2.5000    0.0000 C   0  0  0  0  0  0  0  0  0  0  0  0
    6.3301    1.5000    0.0000 C   0  0  0  0  0  0  0  0  0  0  0  0
    5.4641    0.0000    0.0000 C   0  0  0  0  0  0  0  0  0  0  0  0
    7.2241    3.0347    0.0000 C   0  0  0  0  0  0  0  0  0  0  0  0
    7.2241    0.9653    0.0000 C   0  0  0  0  0  0  0  0  0  0  0  0
    8.1301    2.5208    0.0000 C   0  0  0  0  0  0  0  0  0  0  0  0
    8.1301    1.4792    0.0000 C   0  0  0  0  0  0  0  0  0  0  0  0
    6.3301   -0.5000    0.0000 C   0  0  0  0  0  0  0  0  0  0  0  0
    7.1962   -2.0000    0.0000 C   0  0  0  0  0  0  0  0  0  0  0  0
    7.1962   -3.0000    0.0000 C   0  0  0  0  0  0  0  0  0  0  0  0
    8.0622   -1.5000    0.0000 C   0  0  0  0  0  0  0  0  0  0  0  0
    8.9282   -2.0000    0.0000 C   0  0  0  0  0  0  0  0  0  0  0  0
    8.0622   -3.5000    0.0000 C   0  0  0  0  0  0  0  0  0  0  0  0
    8.9282   -3.0000    0.0000 C   0  0  0  0  0  0  0  0  0  0  0  0
  1  4  1  0  0  0  0 
  1 10  1  0  0  0  0 
  1 11  1  0  0  0  0 
  2 10  1  0  0  0  0 
  2 13  1  0  0  0  0 
  2 14  1  0  0  0  0 
  3 19  1  0  0  0  0 
  3 20  1  0  0  0  0 
  4  5  1  0  0  0  0 
  4  6  1  0  0  0  0 
  5  7  1  0  0  0  0 
  6  8  1  0  0  0  0 
  7  9  1  0  0  0  0 
  8  9  1  0  0  0  0 
 11 12  1  0  0  0  0 
 12 13  1  0  0  0  0 
 12 15  1  0  0  0  0 
 13 16  1  0  0  0  0 
 14 19  1  0  0  0  0 
 15 17  1  0  0  0  0 
 16 18  1  0  0  0  0 
 17 18  1  0  0  0  0 
 20 21  1  0  0  0  0 
 20 22  1  0  0  0  0 
 21 24  1  0  0  0  0 
 22 23  1  0  0  0  0 
 23 25  1  0  0  0  0 
 24 25  1  0  0  0  0 
M  END
> <PUBCHEM_COMPOUND_CID>
22429475

$$$$

  CDK     1227140956

 25 28  0  0  0  0  0  0  0  0999 V2000
    7.2566    1.5050    0.0000 O   0  0  0  0  0  0  0  0  0  0  0  0
    9.2878    1.9914    0.0000 O   0  0  0  0  0  0  0  0  0  0  0  0
    4.6783   -0.8084    0.0000 N   0  0  0  0  0  0  0  0  0  0  0  0
    4.6783   -2.4179    0.0000 N   0  0  0  0  0  0  0  0  0  0  0  0
    8.9541    3.5746    0.0000 N   0  0  0  0  0  0  0  0  0  0  0  0
    9.9484    3.4684    0.0000 N   0  0  0  0  0  0  0  0  0  0  0  0
    3.7320   -1.1132    0.0000 C   0  0  0  0  0  0  0  0  0  0  0  0
    3.7320   -2.1132    0.0000 C   0  0  0  0  0  0  0  0  0  0  0  0
    4.9889    0.1421    0.0000 C   0  0  0  0  0  0  0  0  0  0  0  0
    5.2619   -1.6132    0.0000 C   0  0  0  0  0  0  0  0  0  0  0  0
    5.9674    0.3483    0.0000 C   0  0  0  0  0  0  0  0  0  0  0  0
    2.8660   -0.6132    0.0000 C   0  0  0  0  0  0  0  0  0  0  0  0
    2.8660   -2.6132    0.0000 C   0  0  0  0  0  0  0  0  0  0  0  0
    2.0000   -1.1132    0.0000 C   0  0  0  0  0  0  0  0  0  0  0  0
    2.0000   -2.1132    0.0000 C   0  0  0  0  0  0  0  0  0  0  0  0
    6.2781    1.2988    0.0000 C   0  0  0  0  0  0  0  0  0  0  0  0
    7.5673    2.4556    0.0000 C   0  0  2  0  0  0  0  0  0  0  0  0
    8.5458    2.6618    0.0000 C   0  0  0  0  0  0  0  0  0  0  0  0
   10.1547    2.4899    0.0000 C   0  0  0  0  0  0  0  0  0  0  0  0
   11.0675    2.0816    0.0000 C   0  0  0  0  0  0  0  0  0  0  0  0
   11.1703    1.0869    0.0000 C   0  0  0  0  0  0  0  0  0  0  0  0
   11.8775    2.6679    0.0000 C   0  0  0  0  0  0  0  0  0  0  0  0
   12.0831    0.6785    0.0000 C   0  0  0  0  0  0  0  0  0  0  0  0
   12.7904    2.2596    0.0000 C   0  0  0  0  0  0  0  0  0  0  0  0
   12.8932    1.2649    0.0000 C   0  0  0  0  0  0  0  0  0  0  0  0
  1 16  1  0  0  0  0 
 17  1  1  1  0  0  0 
  2 18  1  0  0  0  0 
  2 19  1  0  0  0  0 
  3  7  1  0  0  0  0 
  3  9  1  0  0  0  0 
  3 10  1  0  0  0  0 
  4  8  1  0  0  0  0 
  4 10  1  0  0  0  0 
  5  6  1  0  0  0  0 
  5 18  1  0  0  0  0 
  6 19  1  0  0  0  0 
  7  8  1  0  0  0  0 
  7 12  1  0  0  0  0 
  8 13  1  0  0  0  0 
  9 11  1  0  0  0  0 
 11 16  1  0  0  0  0 
 12 14  1  0  0  0  0 
 13 15  1  0  0  0  0 
 14 15  1  0  0  0  0 
 17 18  1  0  0  0  0 
 19 20  1  0  0  0  0 
 20 21  1  0  0  0  0 
 20 22  1  0  0  0  0 
 21 23  1  0  0  0  0 
 22 24  1  0  0  0  0 
 23 25  1  0  0  0  0 
 24 25  1  0  0  0  0 
M  END
> <PUBCHEM_COMPOUND_CID>
33536116

$$$$

  CDK     1227140956

 25 28  0  0  0  0  0  0  0  0999 V2000
    6.3301    0.7500    0.0000 C   0  0  0  0  0  0  0  0  0  0  0  0
    6.3301   -0.2500    0.0000 C   0  0  0  0  0  0  0  0  0  0  0  0
    6.3301    1.7500    0.0000 C   0  0  0  0  0  0  0  0  0  0  0  0
    7.3301    0.7500    0.0000 C   0  0  0  0  0  0  0  0  0  0  0  0
    7.1962   -0.7500    0.0000 C   0  0  0  0  0  0  0  0  0  0  0  0
    5.4641   -0.7500    0.0000 C   0  0  0  0  0  0  0  0  0  0  0  0
    7.1962   -1.7500    0.0000 C   0  0  0  0  0  0  0  0  0  0  0  0
    7.8301   -0.1160    0.0000 C   0  0  0  0  0  0  0  0  0  0  0  0
    7.1962    2.2500    0.0000 C   0  0  0  0  0  0  0  0  0  0  0  0
    7.8301    1.6160    0.0000 C   0  0  0  0  0  0  0  0  0  0  0  0
    5.4641    2.2500    0.0000 C   0  0  0  0  0  0  0  0  0  0  0  0
    5.4641   -1.7500    0.0000 C   0  0  0  0  0  0  0  0  0  0  0  0
    6.3301   -2.2500    0.0000 C   0  0  0  0  0  0  0  0  0  0  0  0
    8.0622   -2.2500    0.0000 C   0  0  0  0  0  0  0  0  0  0  0  0
    8.8301   -0.1160    0.0000 C   0  0  0  0  0  0  0  0  0  0  0  0
    7.1962    3.2500    0.0000 C   0  0  0  0  0  0  0  0  0  0  0  0
    8.8301    1.6160    0.0000 C   0  0  0  0  0  0  0  0  0  0  0  0
    5.4641    3.2500    0.0000 C   0  0  0  0  0  0  0  0  0  0  0  0
    9.3301    0.7500    0.0000 C   0  0  0  0  0  0  0  0  0  0  0  0
    6.3301    3.7500    0.0000 C   0  0  0  0  0  0  0  0  0  0  0  0
    8.0622   -3.2500    0.0000 C   0  0  0  0  0  0  0  0  0  0  0  0
    8.9282   -1.7500    0.0000 C   0  0  0  0  0  0  0  0  0  0  0  0
    8.9282   -3.7500    0.0000 C   0  0  0  0  0  0  0  0  0  0  0  0
    9.7942   -2.2500    0.0000 C   0  0  0  0  0  0  0  0  0  0  0  0
    9.7942   -3.2500    0.0000 C   0  0  0  0  0  0  0  0  0  0  0  0
  1  2  1  0  0  0  0 
  1  3  1  0  0  0  0 
  1  4  1  0  0  0  0 
  2  5  1  0  0  0  0 
  2  6  1  0  0  0  0 
  3  9  1  0  0  0  0 
  3 11  1  0  0  0  0 
  4  8  1  0  0  0  0 
  4 10  1  0  0  0  0 
  5  7  1  0  0  0  0 
  6 12  1  0  0  0  0 
  7 13  1  0  0  0  0 
  7 14  1  0  0  0  0 
  8 15  1  0  0  0  0 
  9 16  1  0  0  0  0 
 10 17  1  0  0  0  0 
 11 18  1  0  0  0  0 
 12 13  1  0  0  0  0 
 14 21  1  0  0  0  0 
 14 22  1  0  0  0  0 
 15 19  1  0  0  0  0 
 16 20  1  0  0  0  0 
 17 19  1  0  0  0  0 
 18 20  1  0  0  0  0 
 21 23  1  0  0  0  0 
 22 24  1  0  0  0  0 
 23 25  1  0  0  0  0 
 24 25  1  0  0  0  0 
M  END
> <PUBCHEM_COMPOUND_CID>
21056172

$$$$
