
  CDK     1223141415

 21 23  0  0  0  0  0  0  0  0999 V2000
    3.7320    0.2500    0.0000 N   0  0  0  0  0  0  0  0  0  0  0  0
    4.5981   -0.2500    0.0000 C   0  0  0  0  0  0  0  0  0  0  0  0
    3.7320    1.2500    0.0000 C   0  0  0  0  0  0  0  0  0  0  0  0
    5.4641    0.2500    0.0000 C   0  0  0  0  0  0  0  0  0  0  0  0
    2.8660   -0.2500    0.0000 C   0  0  0  0  0  0  0  0  0  0  0  0
    2.8660   -1.2500    0.0000 C   0  0  0  0  0  0  0  0  0  0  0  0
    4.5981    1.7500    0.0000 C   0  0  0  0  0  0  0  0  0  0  0  0
    2.8660    1.7500    0.0000 C   0  0  0  0  0  0  0  0  0  0  0  0
    6.3301   -0.2500    0.0000 C   0  0  0  0  0  0  0  0  0  0  0  0
    5.4641    1.2500    0.0000 C   0  0  0  0  0  0  0  0  0  0  0  0
    4.5981    2.7500    0.0000 C   0  0  0  0  0  0  0  0  0  0  0  0
    2.8660    2.7500    0.0000 C   0  0  0  0  0  0  0  0  0  0  0  0
    2.0000   -1.7500    0.0000 C   0  0  0  0  0  0  0  0  0  0  0  0
    3.7320   -1.7500    0.0000 C   0  0  0  0  0  0  0  0  0  0  0  0
    3.7320    3.2500    0.0000 C   0  0  0  0  0  0  0  0  0  0  0  0
    7.1962    0.2500    0.0000 C   0  0  0  0  0  0  0  0  0  0  0  0
    6.3301    1.7500    0.0000 C   0  0  0  0  0  0  0  0  0  0  0  0
    2.0000   -2.7500    0.0000 C   0  0  0  0  0  0  0  0  0  0  0  0
    3.7320   -2.7500    0.0000 C   0  0  0  0  0  0  0  0  0  0  0  0
    2.8660   -3.2500    0.0000 C   0  0  0  0  0  0  0  0  0  0  0  0
    7.1962    1.2500    0.0000 C   0  0  0  0  0  0  0  0  0  0  0  0
  1  2  1  0  0  0  0 
  1  3  1  0  0  0  0 
  1  5  1  0  0  0  0 
  2  4  1  0  0  0  0 
  3  7  1  0  0  0  0 
  3  8  1  0  0  0  0 
  4  9  1  0  0  0  0 
  4 10  1  0  0  0  0 
  5  6  1  0  0  0  0 
  6 13  1  0  0  0  0 
  6 14  1  0  0  0  0 
  7 11  1  0  0  0  0 
  8 12  1  0  0  0  0 
  9 16  1  0  0  0  0 
 10 17  1  0  0  0  0 
 11 15  1  0  0  0  0 
 12 15  1  0  0  0  0 
 13 18  1  0  0  0  0 
 14 19  1  0  0  0  0 
 16 21  1  0  0  0  0 
 17 21  1  0  0  0  0 
 18 20  1  0  0  0  0 
 19 20  1  0  0  0  0 
M  END
> <PUBCHEM_COMPOUND_CID>
44870630

$$$$

  CDK     1223141415

 21 23  0  0  0  0  0  0  0  0999 V2000
    4.4700   -0.6095    0.0000 N   0  0  0  0  0  0  0  0  0  0  0  0
    4.7488    1.1505    0.0000 N   0  0  0  0  0  0  0  0  0  0  0  0
    5.5578    4.7383    0.0000 N   0  0  0  0  0  0  0  0  0  0  0  0
    5.5578    2.7383    0.0000 N   0  0  0  0  0  0  0  0  0  0  0  0
    3.8822   -1.4186    0.0000 N   0  0  0  0  0  0  0  0  0  0  0  0
    4.2890   -2.3321    0.0000 C   0  0  2  0  0  0  0  0  0  0  0  0
    4.6957   -3.2456    0.0000 C   0  0  3  0  0  0  0  0  0  0  0  0
    6.4238    4.2383    0.0000 C   0  0  0  0  0  0  0  0  0  0  0  0
    4.6918    4.2383    0.0000 C   0  0  0  0  0  0  0  0  0  0  0  0
    6.4238    3.2383    0.0000 C   0  0  0  0  0  0  0  0  0  0  0  0
    4.6918    3.2383    0.0000 C   0  0  0  0  0  0  0  0  0  0  0  0
    4.7655   -4.2432    0.0000 C   0  0  0  0  0  0  0  0  0  0  0  0
    5.5578    1.7383    0.0000 C   0  0  0  0  0  0  0  0  0  0  0  0
    5.0578    0.1995    0.0000 C   0  0  0  0  0  0  0  0  0  0  0  0
    6.3668    1.1505    0.0000 C   0  0  0  0  0  0  0  0  0  0  0  0
    6.0578    0.1995    0.0000 C   0  0  0  0  0  0  0  0  0  0  0  0
    5.6643   -4.6815    0.0000 C   0  0  0  0  0  0  0  0  0  0  0  0
    3.9364   -4.8024    0.0000 C   0  0  0  0  0  0  0  0  0  0  0  0
    5.7341   -5.6791    0.0000 C   0  0  0  0  0  0  0  0  0  0  0  0
    4.0062   -5.8000    0.0000 C   0  0  0  0  0  0  0  0  0  0  0  0
    4.9050   -6.2383    0.0000 C   0  0  0  0  0  0  0  0  0  0  0  0
  1  5  1  0  0  0  0 
  1 14  1  0  0  0  0 
  2 13  1  0  0  0  0 
  2 14  1  0  0  0  0 
  3  8  1  0  0  0  0 
  3  9  1  0  0  0  0 
  4 10  1  0  0  0  0 
  4 11  1  0  0  0  0 
  4 13  1  0  0  0  0 
  6  5  1  1  0  0  0 
  6  7  1  0  0  0  0 
  7 12  1  0  0  0  0 
  8 10  1  0  0  0  0 
  9 11  1  0  0  0  0 
 12 17  1  0  0  0  0 
 12 18  1  0  0  0  0 
 13 15  1  0  0  0  0 
 14 16  1  0  0  0  0 
 15 16  1  0  0  0  0 
 17 19  1  0  0  0  0 
 18 20  1  0  0  0  0 
 19 21  1  0  0  0  0 
 20 21  1  0  0  0  0 
M  ISO  1   1  32
M  ISO  1   2  32
M  END
> <PUBCHEM_COMPOUND_CID>
70334086

$$$$

  CDK     1223141415

 21 23  0  0  0  0  0  0  0  0999 V2000
    7.5622    4.6149    0.0000 N   0  0  0  0  0  0  0  0  0  0  0  0
    7.1962    1.5761    0.0000 N   0  0  0  0  0  0  0  0  0  0  0  0
    5.4641    0.5761    0.0000 N   0  0  0  0  0  0  0  0  0  0  0  0
    3.7320   -1.4239    0.0000 N   0  0  0  0  0  0  0  0  0  0  0  0
    7.2532    3.6639    0.0000 N   0  0  0  0  0  0  0  0  0  0  0  0
    6.3301    2.0761    0.0000 C   0  0  0  0  0  0  0  0  0  0  0  0
    7.1962    0.5761    0.0000 C   0  0  0  0  0  0  0  0  0  0  0  0
    5.4641    1.5761    0.0000 C   0  0  0  0  0  0  0  0  0  0  0  0
    6.3301    0.0761    0.0000 C   0  0  0  0  0  0  0  0  0  0  0  0
    8.0622    2.0761    0.0000 C   0  0  0  0  0  0  0  0  0  0  0  0
    4.5981    0.0761    0.0000 C   0  0  0  0  0  0  0  0  0  0  0  0
    8.0622    3.0761    0.0000 C   0  0  0  0  0  0  0  0  0  0  0  0
    4.5981   -0.9239    0.0000 C   0  0  0  0  0  0  0  0  0  0  0  0
    8.8712    3.6639    0.0000 C   0  0  0  0  0  0  0  0  0  0  0  0
    8.5622    4.6149    0.0000 C   0  0  0  0  0  0  0  0  0  0  0  0
    3.7320   -2.4239    0.0000 C   0  0  0  0  0  0  0  0  0  0  0  0
    2.8660   -2.9239    0.0000 C   0  0  0  0  0  0  0  0  0  0  0  0
    4.5981   -2.9239    0.0000 C   0  0  0  0  0  0  0  0  0  0  0  0
    2.8660   -3.9239    0.0000 C   0  0  0  0  0  0  0  0  0  0  0  0
    4.5981   -3.9239    0.0000 C   0  0  0  0  0  0  0  0  0  0  0  0
    3.7320   -4.4239    0.0000 C   0  0  0  0  0  0  0  0  0  0  0  0
  1  5  1  0  0  0  0 
  1 15  1  0  0  0  0 
  2  6  1  0  0  0  0 
  2  7  1  0  0  0  0 
  2 10  1  0  0  0  0 
  3  8  1  0  0  0  0 
  3  9  1  0  0  0  0 
  3 11  1  0  0  0  0 
  4 13  1  0  0  0  0 
  4 16  1  0  0  0  0 
  5 12  1  0  0  0  0 
  6  8  1  0  0  0  0 
  7  9  1  0  0  0  0 
 10 12  1  0  0  0  0 
 11 13  1  0  0  0  0 
 12 14  1  0  0  0  0 
 14 15  1  0  0  0  0 
 16 17  1  0  0  0  0 
 16 18  1  0  0  0  0 
 17 19  1  0  0  0  0 
 18 20  1  0  0  0  0 
 19 21  1  0  0  0  0 
 20 21  1  0  0  0  0 
M  ISO  1   1  16
M  END
> <PUBCHEM_COMPOUND_CID>
45769398

$$$$

  CDK     1223141415

 21 23  0  0  0  0  0  0  0  0999 V2000
    7.1962    2.0000    0.0000 N   0  0  0  0  0  0  0  0  0  0  0  0
    5.4641    1.0000    0.0000 N   0  0  0  0  0  0  0  0  0  0  0  0
    5.4641    2.0000    0.0000 C   0  0  0  0  0  0  0  0  0  0  0  0
    4.5981   -0.5000    0.0000 C   0  0  0  0  0  0  0  0  0  0  0  0
    6.3301    2.5000    0.0000 C   0  0  0  0  0  0  0  0  0  0  0  0
    4.5981    0.5000    0.0000 C   0  0  0  0  0  0  0  0  0  0  0  0
    3.7320   -1.0000    0.0000 C   0  0  0  0  0  0  0  0  0  0  0  0
    3.7320   -2.0000    0.0000 C   0  0  0  0  0  0  0  0  0  0  0  0
    5.4641   -1.0000    0.0000 C   0  0  0  0  0  0  0  0  0  0  0  0
    4.5981   -2.5000    0.0000 C   0  0  0  0  0  0  0  0  0  0  0  0
    4.5981    2.5000    0.0000 C   0  0  0  0  0  0  0  0  0  0  0  0
    5.4641   -2.0000    0.0000 C   0  0  0  0  0  0  0  0  0  0  0  0
    6.3301    3.5000    0.0000 C   0  0  0  0  0  0  0  0  0  0  0  0
    4.5981    3.5000    0.0000 C   0  0  0  0  0  0  0  0  0  0  0  0
    5.4641    4.0000    0.0000 C   0  0  0  0  0  0  0  0  0  0  0  0
    8.0622    2.5000    0.0000 C   0  0  0  0  0  0  0  0  0  0  0  0
    8.9282    2.0000    0.0000 C   0  0  0  0  0  0  0  0  0  0  0  0
    8.0622    3.5000    0.0000 C   0  0  0  0  0  0  0  0  0  0  0  0
    9.7942    2.5000    0.0000 C   0  0  0  0  0  0  0  0  0  0  0  0
    8.9282    4.0000    0.0000 C   0  0  0  0  0  0  0  0  0  0  0  0
    9.7942    3.5000    0.0000 C   0  0  0  0  0  0  0  0  0  0  0  0
  1  5  1  0  0  0  0 
  1 16  1  0  0  0  0 
  2  3  1  0  0  0  0 
  2  6  1  0  0  0  0 
  3  5  1  0  0  0  0 
  3 11  1  0  0  0  0 
  4  6  1  0  0  0  0 
  4  7  1  0  0  0  0 
  4  9  1  0  0  0  0 
  5 13  1  0  0  0  0 
  7  8  1  0  0  0  0 
  8 10  1  0  0  0  0 
  9 12  1  0  0  0  0 
 10 12  1  0  0  0  0 
 11 14  1  0  0  0  0 
 13 15  1  0  0  0  0 
 14 15  1  0  0  0  0 
 16 17  1  0  0  0  0 
 16 18  1  0  0  0  0 
 17 19  1  0  0  0  0 
 18 20  1  0  0  0  0 
 19 21  1  0  0  0  0 
 20 21  1  0  0  0  0 
M  ISO  1   1  16
M  END
> <PUBCHEM_COMPOUND_CID>
26764113

$$$$

  CDK     1223141415

 21 23  0  0  0  0  0  0  0  0999 V2000
    3.4945    1.4255    0.0000 N   0  0  0  0  0  0  0  0  0  0  0  0
    9.5553    0.5531    0.0000 N   0  0  0  0  0  0  0  0  0  0  0  0
   10.8643    1.5042    0.0000 N   0  0  0  0  0  0  0  0  0  0  0  0
   11.1733    0.5531    0.0000 N   0  0  0  0  0  0  0  0  0  0  0  0
    6.1669    1.2733    0.0000 N   0  0  0  0  0  0  0  0  0  0  0  0
    8.6042    0.2441    0.0000 C   0  0  0  0  0  0  0  0  0  0  0  0
    7.8611    0.9132    0.0000 C   0  0  0  0  0  0  0  0  0  0  0  0
   10.3643   -0.0347    0.0000 C   0  0  0  0  0  0  0  0  0  0  0  0
   10.3643   -1.0347    0.0000 C   0  0  0  0  0  0  0  0  0  0  0  0
    9.8643    1.5042    0.0000 C   0  0  0  0  0  0  0  0  0  0  0  0
    6.9100    0.6042    0.0000 C   0  0  0  0  0  0  0  0  0  0  0  0
    9.4983   -1.5347    0.0000 C   0  0  0  0  0  0  0  0  0  0  0  0
   11.2303   -1.5347    0.0000 C   0  0  0  0  0  0  0  0  0  0  0  0
    5.2158    0.9643    0.0000 C   0  0  0  0  0  0  0  0  0  0  0  0
    9.4983   -2.5347    0.0000 C   0  0  0  0  0  0  0  0  0  0  0  0
   11.2303   -2.5347    0.0000 C   0  0  0  0  0  0  0  0  0  0  0  0
   10.3643   -3.0347    0.0000 C   0  0  0  0  0  0  0  0  0  0  0  0
    4.4727    1.6334    0.0000 C   0  0  0  0  0  0  0  0  0  0  0  0
    4.5772    2.6280    0.0000 C   0  0  0  0  0  0  0  0  0  0  0  0
    3.6637    3.0347    0.0000 C   0  0  0  0  0  0  0  0  0  0  0  0
    2.9945    2.2916    0.0000 C   0  0  0  0  0  0  0  0  0  0  0  0
  1 18  1  0  0  0  0 
  1 21  1  0  0  0  0 
  2  6  1  0  0  0  0 
  2  8  1  0  0  0  0 
  2 10  1  0  0  0  0 
  3  4  1  0  0  0  0 
  3 10  1  0  0  0  0 
  4  8  1  0  0  0  0 
  5 11  1  0  0  0  0 
  5 14  1  0  0  0  0 
  6  7  1  0  0  0  0 
  7 11  1  0  0  0  0 
  8  9  1  0  0  0  0 
  9 12  1  0  0  0  0 
  9 13  1  0  0  0  0 
 12 15  1  0  0  0  0 
 13 16  1  0  0  0  0 
 14 18  1  0  0  0  0 
 15 17  1  0  0  0  0 
 16 17  1  0  0  0  0 
 18 19  1  0  0  0  0 
 19 20  1  0  0  0  0 
 20 21  1  0  0  0  0 
M  ISO  1   1  32
M  END
> <PUBCHEM_COMPOUND_CID>
32830389

$$$$

  CDK     1223141415

 21 23  0  0  0  0  0  0  0  0999 V2000
    5.5208    0.6449    0.0000 N   0  0  0  0  0  0  0  0  0  0  0  0
    3.6730    2.4927    0.0000 N   0  0  0  0  0  0  0  0  0  0  0  0
    5.6770   -1.1402    0.0000 N   0  0  0  0  0  0  0  0  0  0  0  0
    6.7472   -2.5021    0.0000 N   0  0  0  0  0  0  0  0  0  0  0  0
    5.5208    2.4927    0.0000 C   0  0  1  0  0  0  0  0  0  0  0  0
    5.9035    1.5688    0.0000 C   0  0  1  0  0  0  0  0  0  0  0  0
    4.5969    2.8754    0.0000 C   0  0  0  0  0  0  0  0  0  0  0  0
    3.2904    1.5688    0.0000 C   0  0  0  0  0  0  0  0  0  0  0  0
    4.5969    0.2622    0.0000 C   0  0  0  0  0  0  0  0  0  0  0  0
    3.6730    0.6449    0.0000 C   0  0  0  0  0  0  0  0  0  0  0  0
    4.7488   -0.7683    0.0000 C   0  0  0  0  0  0  0  0  0  0  0  0
    2.8370    0.0236    0.0000 C   0  0  0  0  0  0  0  0  0  0  0  0
    3.9273   -1.4087    0.0000 C   0  0  0  0  0  0  0  0  0  0  0  0
    2.9650   -1.0101    0.0000 C   0  0  0  0  0  0  0  0  0  0  0  0
    5.8190   -2.1301    0.0000 C   0  0  0  0  0  0  0  0  0  0  0  0
    6.8892   -3.4920    0.0000 C   0  0  0  0  0  0  0  0  0  0  0  0
    6.1030   -4.1098    0.0000 C   0  0  0  0  0  0  0  0  0  0  0  0
    7.8175   -3.8639    0.0000 C   0  0  0  0  0  0  0  0  0  0  0  0
    6.2450   -5.0997    0.0000 C   0  0  0  0  0  0  0  0  0  0  0  0
    7.9594   -4.8538    0.0000 C   0  0  0  0  0  0  0  0  0  0  0  0
    7.1732   -5.4717    0.0000 C   0  0  0  0  0  0  0  0  0  0  0  0
  1  6  1  0  0  0  0 
  1  9  1  0  0  0  0 
  2  7  1  0  0  0  0 
  2  8  1  0  0  0  0 
  3 11  1  0  0  0  0 
  3 15  1  0  0  0  0 
  4 15  1  0  0  0  0 
  4 16  1  0  0  0  0 
  5  6  1  0  0  0  0 
  5  7  1  0  0  0  0 
  8 10  1  0  0  0  0 
  9 10  1  0  0  0  0 
  9 11  1  0  0  0  0 
 10 12  1  0  0  0  0 
 11 13  1  0  0  0  0 
 12 14  1  0  0  0  0 
 13 14  1  0  0  0  0 
 16 17  1  0  0  0  0 
 16 18  1  0  0  0  0 
 17 19  1  0  0  0  0 
 18 20  1  0  0  0  0 
 19 21  1  0  0  0  0 
 20 21  1  0  0  0  0 
M  ISO  1   1  16
M  END
> <PUBCHEM_COMPOUND_CID>
44495362

$$$$

  CDK     1223141415

 21 23  0  0  0  0  0  0  0  0999 V2000
    5.0268    2.0374    0.0000 N   0  0  0  0  0  0  0  0  0  0  0  0
    6.3301   -0.1780    0.0000 N   0  0  0  0  0  0  0  0  0  0  0  0
    4.9920    3.0368    0.0000 N   0  0  0  0  0  0  0  0  0  0  0  0
    5.4641   -0.6780    0.0000 C   0  0  2  0  0  0  0  0  0  0  0  0
    5.4641   -1.6780    0.0000 C   0  0  0  0  0  0  0  0  0  0  0  0
    7.1962   -0.6780    0.0000 C   0  0  0  0  0  0  0  0  0  0  0  0
    6.3301    0.8220    0.0000 C   0  0  0  0  0  0  0  0  0  0  0  0
    8.0622   -0.1780    0.0000 C   0  0  0  0  0  0  0  0  0  0  0  0
    4.5981   -2.1780    0.0000 C   0  0  0  0  0  0  0  0  0  0  0  0
    6.3301   -2.1780    0.0000 C   0  0  0  0  0  0  0  0  0  0  0  0
    5.9881    1.7617    0.0000 C   0  0  0  0  0  0  0  0  0  0  0  0
    4.5981   -3.1780    0.0000 C   0  0  0  0  0  0  0  0  0  0  0  0
    6.3301   -3.1780    0.0000 C   0  0  0  0  0  0  0  0  0  0  0  0
    8.0622    0.8220    0.0000 C   0  0  0  0  0  0  0  0  0  0  0  0
    8.9282   -0.6780    0.0000 C   0  0  0  0  0  0  0  0  0  0  0  0
    5.4641   -3.6780    0.0000 C   0  0  0  0  0  0  0  0  0  0  0  0
    6.5473    2.5908    0.0000 C   0  0  0  0  0  0  0  0  0  0  0  0
    8.9282    1.3220    0.0000 C   0  0  0  0  0  0  0  0  0  0  0  0
    9.7942   -0.1780    0.0000 C   0  0  0  0  0  0  0  0  0  0  0  0
    9.7942    0.8220    0.0000 C   0  0  0  0  0  0  0  0  0  0  0  0
    5.9316    3.3788    0.0000 C   0  0  0  0  0  0  0  0  0  0  0  0
  1  3  1  0  0  0  0 
  1 11  1  0  0  0  0 
  4  2  1  1  0  0  0 
  2  6  1  0  0  0  0 
  2  7  1  0  0  0  0 
  3 21  1  0  0  0  0 
  4  5  1  0  0  0  0 
  5  9  1  0  0  0  0 
  5 10  1  0  0  0  0 
  6  8  1  0  0  0  0 
  7 11  1  0  0  0  0 
  8 14  1  0  0  0  0 
  8 15  1  0  0  0  0 
  9 12  1  0  0  0  0 
 10 13  1  0  0  0  0 
 11 17  1  0  0  0  0 
 12 16  1  0  0  0  0 
 13 16  1  0  0  0  0 
 14 18  1  0  0  0  0 
 15 19  1  0  0  0  0 
 17 21  1  0  0  0  0 
 18 20  1  0  0  0  0 
 19 20  1  0  0  0  0 
M  ISO  1   1  32
M  END
> <PUBCHEM_COMPOUND_CID>
40581200

$$$$
