
  CDK     1227140956

 29 32  0  0  0  0  0  0  0  0999 V2000
   11.6603   -0.2500    0.0000 S   0  0  0  0  0  0  0  0  0  0  0  0
    3.8660   -1.7500    0.0000 N   0  0  0  0  0  0  0  0  0  0  0  0
    9.0622   -2.7500    0.0000 N   0  0  0  0  0  0  0  0  0  0  0  0
   11.6603    0.7500    0.0000 N   0  0  0  0  0  0  0  0  0  0  0  0
    3.0000   -1.2500    0.0000 C   0  0  0  0  0  0  0  0  0  0  0  0
    2.5000   -0.3840    0.0000 C   0  0  0  0  0  0  0  0  0  0  0  0
    2.0000   -1.2500    0.0000 C   0  0  0  0  0  0  0  0  0  0  0  0
    4.7320   -1.2500    0.0000 C   0  0  0  0  0  0  0  0  0  0  0  0
    5.5981   -1.7500    0.0000 C   0  0  0  0  0  0  0  0  0  0  0  0
    5.5981   -2.7500    0.0000 C   0  0  0  0  0  0  0  0  0  0  0  0
    6.4641   -1.2500    0.0000 C   0  0  0  0  0  0  0  0  0  0  0  0
    7.3301   -2.7500    0.0000 C   0  0  0  0  0  0  0  0  0  0  0  0
    6.4641   -3.2500    0.0000 C   0  0  0  0  0  0  0  0  0  0  0  0
    7.3301   -1.7500    0.0000 C   0  0  0  0  0  0  0  0  0  0  0  0
    8.1962   -3.2500    0.0000 C   0  0  0  0  0  0  0  0  0  0  0  0
   10.7942   -2.7500    0.0000 C   0  0  0  0  0  0  0  0  0  0  0  0
    9.9282   -3.2500    0.0000 C   0  0  0  0  0  0  0  0  0  0  0  0
   11.6603   -1.2500    0.0000 C   0  0  0  0  0  0  0  0  0  0  0  0
   11.6603   -3.2500    0.0000 C   0  0  0  0  0  0  0  0  0  0  0  0
   10.7942   -1.7500    0.0000 C   0  0  0  0  0  0  0  0  0  0  0  0
   12.5263   -1.7500    0.0000 C   0  0  0  0  0  0  0  0  0  0  0  0
   12.5263   -2.7500    0.0000 C   0  0  0  0  0  0  0  0  0  0  0  0
   12.5263    1.2500    0.0000 C   0  0  0  0  0  0  0  0  0  0  0  0
   12.5263    2.2500    0.0000 C   0  0  0  0  0  0  0  0  0  0  0  0
   13.3923    2.7500    0.0000 C   0  0  0  0  0  0  0  0  0  0  0  0
   11.6603    2.7500    0.0000 C   0  0  0  0  0  0  0  0  0  0  0  0
   13.3923    3.7500    0.0000 C   0  0  0  0  0  0  0  0  0  0  0  0
   11.6603    3.7500    0.0000 C   0  0  0  0  0  0  0  0  0  0  0  0
   12.5263    4.2500    0.0000 C   0  0  0  0  0  0  0  0  0  0  0  0
  1  4  1  0  0  0  0 
  1 18  1  0  0  0  0 
  2  5  1  0  0  0  0 
  2  8  1  0  0  0  0 
  3 15  1  0  0  0  0 
  3 17  1  0  0  0  0 
  4 23  1  0  0  0  0 
  5  6  1  0  0  0  0 
  5  7  1  0  0  0  0 
  6  7  1  0  0  0  0 
  8  9  1  0  0  0  0 
  9 10  1  0  0  0  0 
  9 11  1  0  0  0  0 
 10 13  1  0  0  0  0 
 11 14  1  0  0  0  0 
 12 13  1  0  0  0  0 
 12 14  1  0  0  0  0 
 12 15  1  0  0  0  0 
 16 17  1  0  0  0  0 
 16 19  1  0  0  0  0 
 16 20  1  0  0  0  0 
 18 20  1  0  0  0  0 
 18 21  1  0  0  0  0 
 19 22  1  0  0  0  0 
 21 22  1  0  0  0  0 
 23 24  1  0  0  0  0 
 24 25  1  0  0  0  0 
 24 26  1  0  0  0  0 
 25 27  1  0  0  0  0 
 26 28  1  0  0  0  0 
 27 29  1  0  0  0  0 
 28 29  1  0  0  0  0 
M  END
> <PUBCHEM_COMPOUND_CID>
38395110

$$$$
