
  CDK     0224152114

  5  5  0  0  0  0  0  0  0  0999 V2000
    6.4860    1.9806    0.0000 N   0  0  0  0  0  0  0  0  0  0  0  0
    5.6770    2.5684    0.0000 C   0  0  0  0  0  0  0  0  0  0  0  0
    5.9860    3.5194    0.0000 C   0  0  0  0  0  0  0  0  0  0  0  0
    7.2950    2.5684    0.0000 C   0  0  0  0  0  0  0  0  0  0  0  0
    6.9860    3.5194    0.0000 C   0  0  0  0  0  0  0  0  0  0  0  0
  1  2  1  0  0  0  0 
  1  4  1  0  0  0  0 
  2  3  1  0  0  0  0 
  3  5  1  0  0  0  0 
  4  5  1  0  0  0  0 
M  END
> <PUBCHEM_COMPOUND_CID>
23379805

$$$$
