38487696
  CDK     0104151102

 47 50  0  0  0  0  0  0  0  0999 V2000
   10.1588    3.8512    0.0000 Cl  0  0  0  0  0  0  0  0  0  0  0  0
    9.2928   -2.6488    0.0000 O   0  0  0  0  0  0  0  0  0  0  0  0
    7.4562   -3.6433    0.0000 O   0  0  0  0  0  0  0  0  0  0  0  0
    8.4268    0.8512    0.0000 N   0  0  0  0  0  0  0  0  0  0  0  0
    8.4268   -1.1488    0.0000 N   0  0  0  0  0  0  0  0  0  0  0  0
    6.4781   -3.8512    0.0000 N   0  0  0  0  0  0  0  0  0  0  0  0
    7.5608    0.3512    0.0000 C   0  0  0  0  0  0  0  0  0  0  0  0
    9.2928    0.3512    0.0000 C   0  0  0  0  0  0  0  0  0  0  0  0
    7.5608   -0.6488    0.0000 C   0  0  0  0  0  0  0  0  0  0  0  0
    9.2928   -0.6488    0.0000 C   0  0  0  0  0  0  0  0  0  0  0  0
    8.4268    1.8512    0.0000 C   0  0  0  0  0  0  0  0  0  0  0  0
    8.4268   -2.1488    0.0000 C   0  0  0  0  0  0  0  0  0  0  0  0
    9.2928    2.3512    0.0000 C   0  0  0  0  0  0  0  0  0  0  0  0
    7.5608    2.3512    0.0000 C   0  0  0  0  0  0  0  0  0  0  0  0
    7.5608   -2.6488    0.0000 C   0  0  0  0  0  0  0  0  0  0  0  0
    6.6472   -2.2421    0.0000 C   0  0  0  0  0  0  0  0  0  0  0  0
    9.2928    3.3512    0.0000 C   0  0  0  0  0  0  0  0  0  0  0  0
    7.5608    3.3512    0.0000 C   0  0  0  0  0  0  0  0  0  0  0  0
    5.9781   -2.9852    0.0000 C   0  0  0  0  0  0  0  0  0  0  0  0
    8.4268    3.8512    0.0000 C   0  0  0  0  0  0  0  0  0  0  0  0
    4.9836   -2.8807    0.0000 C   0  0  0  0  0  0  0  0  0  0  0  0
    4.5768   -1.9671    0.0000 C   0  0  0  0  0  0  0  0  0  0  0  0
    4.3958   -3.6897    0.0000 C   0  0  0  0  0  0  0  0  0  0  0  0
    2.9945   -2.6716    0.0000 C   0  0  0  0  0  0  0  0  0  0  0  0
    3.5823   -1.8626    0.0000 C   0  0  0  0  0  0  0  0  0  0  0  0
    3.4013   -3.5852    0.0000 C   0  0  0  0  0  0  0  0  0  0  0  0
    2.0000   -2.5671    0.0000 C   0  0  0  0  0  0  0  0  0  0  0  0
    7.3487    0.9338    0.0000 H   0  0  0  0  0  0  0  0  0  0  0  0
    6.9502    0.2436    0.0000 H   0  0  0  0  0  0  0  0  0  0  0  0
    9.9034    0.2436    0.0000 H   0  0  0  0  0  0  0  0  0  0  0  0
    9.5049    0.9338    0.0000 H   0  0  0  0  0  0  0  0  0  0  0  0
    6.9502   -0.5411    0.0000 H   0  0  0  0  0  0  0  0  0  0  0  0
    7.3487   -1.2314    0.0000 H   0  0  0  0  0  0  0  0  0  0  0  0
    9.5049   -1.2314    0.0000 H   0  0  0  0  0  0  0  0  0  0  0  0
    9.9034   -0.5411    0.0000 H   0  0  0  0  0  0  0  0  0  0  0  0
    9.8298    2.0412    0.0000 H   0  0  0  0  0  0  0  0  0  0  0  0
    7.0238    2.0412    0.0000 H   0  0  0  0  0  0  0  0  0  0  0  0
    6.5183   -1.6356    0.0000 H   0  0  0  0  0  0  0  0  0  0  0  0
    7.0238    3.6612    0.0000 H   0  0  0  0  0  0  0  0  0  0  0  0
    8.4268    4.4712    0.0000 H   0  0  0  0  0  0  0  0  0  0  0  0
    4.9413   -1.4655    0.0000 H   0  0  0  0  0  0  0  0  0  0  0  0
    4.6480   -4.2561    0.0000 H   0  0  0  0  0  0  0  0  0  0  0  0
    3.3301   -1.2962    0.0000 H   0  0  0  0  0  0  0  0  0  0  0  0
    3.0368   -4.0867    0.0000 H   0  0  0  0  0  0  0  0  0  0  0  0
    2.0648   -1.9505    0.0000 H   0  0  0  0  0  0  0  0  0  0  0  0
    1.3834   -2.5023    0.0000 H   0  0  0  0  0  0  0  0  0  0  0  0
    1.9352   -3.1837    0.0000 H   0  0  0  0  0  0  0  0  0  0  0  0
  1 17  1  0  0  0  0 
  2 12  2  0  0  0  0 
  3  6  1  0  0  0  0 
  3 15  1  0  0  0  0 
  4  7  1  0  0  0  0 
  4  8  1  0  0  0  0 
  4 11  1  0  0  0  0 
  5  9  1  0  0  0  0 
  5 10  1  0  0  0  0 
  5 12  1  0  0  0  0 
  6 19  2  0  0  0  0 
  7  9  1  0  0  0  0 
  7 28  1  0  0  0  0 
  7 29  1  0  0  0  0 
  8 10  1  0  0  0  0 
  8 30  1  0  0  0  0 
  8 31  1  0  0  0  0 
  9 32  1  0  0  0  0 
  9 33  1  0  0  0  0 
 10 34  1  0  0  0  0 
 10 35  1  0  0  0  0 
 11 13  2  0  0  0  0 
 11 14  1  0  0  0  0 
 12 15  1  0  0  0  0 
 13 17  1  0  0  0  0 
 13 36  1  0  0  0  0 
 14 18  2  0  0  0  0 
 14 37  1  0  0  0  0 
 15 16  2  0  0  0  0 
 16 19  1  0  0  0  0 
 16 38  1  0  0  0  0 
 17 20  2  0  0  0  0 
 18 20  1  0  0  0  0 
 18 39  1  0  0  0  0 
 19 21  1  0  0  0  0 
 20 40  1  0  0  0  0 
 21 22  2  0  0  0  0 
 21 23  1  0  0  0  0 
 22 25  1  0  0  0  0 
 22 41  1  0  0  0  0 
 23 26  2  0  0  0  0 
 23 42  1  0  0  0  0 
 24 25  2  0  0  0  0 
 24 26  1  0  0  0  0 
 24 27  1  0  0  0  0 
 25 43  1  0  0  0  0 
 26 44  1  0  0  0  0 
 27 45  1  0  0  0  0 
 27 46  1  0  0  0  0 
 27 47  1  0  0  0  0 
M  END
> <cdk:Title>
38487696

> <cdk:Remark>
null

> <PUBCHEM_COMPOUND_CID>
38487696

> <PUBCHEM_COMPOUND_CANONICALIZED>
1

> <PUBCHEM_CACTVS_COMPLEXITY>
504

> <PUBCHEM_CACTVS_HBOND_ACCEPTOR>
4

> <PUBCHEM_CACTVS_HBOND_DONOR>
0

> <PUBCHEM_CACTVS_ROTATABLE_BOND>
3

> <PUBCHEM_CACTVS_SUBSKEYS>
AAADceB7MAAEAAAAAAAAAAAAAAAAAWAAAAA8YIAAAAAAAAAB0AAAHgIEAAAADA7BniQyxJMQAACpA6VyUgKCAAAlJwAomCH+btoKZrrBl7OUMYhmhhjYycecyOCOQAAAAAIAAACAAAAABAAAAAAAAAAAAA==

> <PUBCHEM_IUPAC_OPENEYE_NAME>
[4-(3-chlorophenyl)piperazin-1-yl]-[3-(p-tolyl)isoxazol-5-yl]methanone

> <PUBCHEM_IUPAC_CAS_NAME>
[4-(3-chlorophenyl)-1-piperazinyl]-[3-(4-methylphenyl)-5-isoxazolyl]methanone

> <PUBCHEM_IUPAC_NAME>
[4-(3-chlorophenyl)piperazin-1-yl]-[3-(4-methylphenyl)-1,2-oxazol-5-yl]methanone

> <PUBCHEM_IUPAC_SYSTEMATIC_NAME>
[4-(3-chlorophenyl)piperazin-1-yl]-[3-(4-methylphenyl)-1,2-oxazol-5-yl]methanone

> <PUBCHEM_IUPAC_TRADITIONAL_NAME>
[4-(3-chlorophenyl)piperazino]-[3-(p-tolyl)isoxazol-5-yl]methanone

> <PUBCHEM_IUPAC_INCHI>
InChI=1S/C21H20ClN3O2/c1-15-5-7-16(8-6-15)19-14-20(27-23-19)21(26)25-11-9-24(10-12-25)18-4-2-3-17(22)13-18/h2-8,13-14H,9-12H2,1H3

> <PUBCHEM_IUPAC_INCHIKEY>
UNMPEDNLCQLGNO-UHFFFAOYSA-N

> <PUBCHEM_XLOGP3_AA>
4.4

> <PUBCHEM_EXACT_MASS>
381.124405

> <PUBCHEM_MOLECULAR_FORMULA>
C21H20ClN3O2

> <PUBCHEM_MOLECULAR_WEIGHT>
381.8554

> <PUBCHEM_OPENEYE_CAN_SMILES>
CC1=CC=C(C=C1)C2=NOC(=C2)C(=O)N3CCN(CC3)C4=CC(=CC=C4)Cl

> <PUBCHEM_OPENEYE_ISO_SMILES>
CC1=CC=C(C=C1)C2=NOC(=C2)C(=O)N3CCN(CC3)C4=CC(=CC=C4)Cl

> <PUBCHEM_CACTVS_TPSA>
49.6

> <PUBCHEM_MONOISOTOPIC_WEIGHT>
381.124405

> <PUBCHEM_TOTAL_CHARGE>
0

> <PUBCHEM_HEAVY_ATOM_COUNT>
27

> <PUBCHEM_ATOM_DEF_STEREO_COUNT>
0

> <PUBCHEM_ATOM_UDEF_STEREO_COUNT>
0

> <PUBCHEM_BOND_DEF_STEREO_COUNT>
0

> <PUBCHEM_BOND_UDEF_STEREO_COUNT>
0

> <PUBCHEM_ISOTOPIC_ATOM_COUNT>
0

> <PUBCHEM_COMPONENT_COUNT>
1

> <PUBCHEM_CACTVS_TAUTO_COUNT>
1

> <PUBCHEM_COORDINATE_TYPE>
1

> <PUBCHEM_BONDANNOTATIONS>
11  13  8

$$$$
