
  CDK     1227140956

 16 18  0  0  0  0  0  0  0  0999 V2000
    4.3801    1.0537    0.0000 S   0  0  0  0  0  0  0  0  0  0  0  0
    6.0650   -1.4679    0.0000 N   0  0  0  0  0  0  0  0  0  0  0  0
    5.8062   -2.4339    0.0000 C   0  0  0  0  0  0  0  0  0  0  0  0
    4.8284   -0.6193    0.0000 C   0  0  3  0  0  0  0  0  0  0  0  0
    5.6944   -0.1193    0.0000 C   0  0  0  0  0  0  0  0  0  0  0  0
    4.0742   -3.4339    0.0000 C   0  0  0  0  0  0  0  0  0  0  0  0
    7.6382   -3.1927    0.0000 C   0  0  0  0  0  0  0  0  0  0  0  0
    3.5742   -2.5678    0.0000 C   0  0  0  0  0  0  0  0  0  0  0  0
    7.8970   -2.2268    0.0000 C   0  0  0  0  0  0  0  0  0  0  0  0
    4.1213    0.0878    0.0000 C   0  0  3  0  0  0  0  0  0  0  0  0
    3.6730    1.7608    0.0000 C   0  0  0  0  0  0  0  0  0  0  0  0
    3.9318    2.7268    0.0000 C   0  0  0  0  0  0  0  0  0  0  0  0
    2.7071    1.5020    0.0000 C   0  0  0  0  0  0  0  0  0  0  0  0
    3.2247    3.4339    0.0000 C   0  0  0  0  0  0  0  0  0  0  0  0
    2.0000    2.2091    0.0000 C   0  0  0  0  0  0  0  0  0  0  0  0
    2.2588    3.1750    0.0000 C   0  0  0  0  0  0  0  0  0  0  0  0
  1 10  1  0  0  0  0 
  1 11  1  0  0  0  0 
  2  5  1  0  0  0  0 
  2  8  1  0  0  0  0 
  2  9  1  0  0  0  0 
  3  4  1  0  0  0  0 
  3  6  1  0  0  0  0 
  3  7  1  0  0  0  0 
  4  5  1  0  0  0  0 
  4 10  1  0  0  0  0 
  6  8  1  0  0  0  0 
  7  9  1  0  0  0  0 
 11 12  1  0  0  0  0 
 11 13  1  0  0  0  0 
 12 14  1  0  0  0  0 
 13 15  1  0  0  0  0 
 14 16  1  0  0  0  0 
 15 16  1  0  0  0  0 
M  END
> <PUBCHEM_COMPOUND_CID>
10446339

$$$$

  CDK     1227140956

 16 18  0  0  0  0  0  0  0  0999 V2000
    7.7619   -0.6276    0.0000 N   0  0  3  0  0  0  0  0  0  0  0  0
    5.2619    0.2384    0.0000 N   0  0  0  0  0  0  0  0  0  0  0  0
    3.7320    0.7384    0.0000 N   0  0  0  0  0  0  0  0  0  0  0  0
    4.6783   -0.5663    0.0000 N   0  0  0  0  0  0  0  0  0  0  0  0
    9.2619   -1.4936    0.0000 C   0  0  0  0  0  0  0  0  0  0  0  0
   10.1279   -1.9936    0.0000 C   0  0  0  0  0  0  0  0  0  0  0  0
   10.1279   -0.9937    0.0000 C   0  0  0  0  0  0  0  0  0  0  0  0
    8.2619   -1.4936    0.0000 C   0  0  0  0  0  0  0  0  0  0  0  0
    6.7619   -0.6276    0.0000 C   0  0  0  0  0  0  0  0  0  0  0  0
    6.2619    0.2384    0.0000 C   0  0  0  0  0  0  0  0  0  0  0  0
    4.6783    1.0431    0.0000 C   0  0  0  0  0  0  0  0  0  0  0  0
    3.7320   -0.2616    0.0000 C   0  0  0  0  0  0  0  0  0  0  0  0
    2.8660    1.2384    0.0000 C   0  0  0  0  0  0  0  0  0  0  0  0
    2.8660   -0.7616    0.0000 C   0  0  0  0  0  0  0  0  0  0  0  0
    2.0000    0.7384    0.0000 C   0  0  0  0  0  0  0  0  0  0  0  0
    2.0000   -0.2616    0.0000 C   0  0  0  0  0  0  0  0  0  0  0  0
  1  8  1  0  0  0  0 
  1  9  1  0  0  0  0 
  2  4  1  0  0  0  0 
  2 10  1  0  0  0  0 
  2 11  1  0  0  0  0 
  3 11  1  0  0  0  0 
  3 12  1  0  0  0  0 
  3 13  1  0  0  0  0 
  4 12  1  0  0  0  0 
  5  6  1  0  0  0  0 
  5  7  1  0  0  0  0 
  5  8  1  0  0  0  0 
  6  7  1  0  0  0  0 
  9 10  1  0  0  0  0 
 12 14  1  0  0  0  0 
 13 15  1  0  0  0  0 
 14 16  1  0  0  0  0 
 15 16  1  0  0  0  0 
M  END
> <PUBCHEM_COMPOUND_CID>
43656442

$$$$

  CDK     1227140956

 16 18  0  0  0  0  0  0  0  0999 V2000
    4.6783   -0.7588    0.0000 N   0  0  0  0  0  0  0  0  0  0  0  0
    4.6783   -2.3683    0.0000 N   0  0  0  0  0  0  0  0  0  0  0  0
    6.2781    1.3485    0.0000 N   0  0  0  0  0  0  0  0  0  0  0  0
    7.2297    1.6558    0.0000 N   0  0  0  0  0  0  0  0  0  0  0  0
    4.9889    0.1917    0.0000 C   0  0  0  0  0  0  0  0  0  0  0  0
    5.2619   -1.5635    0.0000 C   0  0  0  0  0  0  0  0  0  0  0  0
    3.7320   -1.0635    0.0000 C   0  0  0  0  0  0  0  0  0  0  0  0
    5.9674    0.3979    0.0000 C   0  0  0  0  0  0  0  0  0  0  0  0
    3.7320   -2.0635    0.0000 C   0  0  0  0  0  0  0  0  0  0  0  0
    2.8660   -0.5635    0.0000 C   0  0  0  0  0  0  0  0  0  0  0  0
    2.8660   -2.5635    0.0000 C   0  0  0  0  0  0  0  0  0  0  0  0
    2.0000   -1.0635    0.0000 C   0  0  0  0  0  0  0  0  0  0  0  0
    2.0000   -2.0635    0.0000 C   0  0  0  0  0  0  0  0  0  0  0  0
    5.6917    2.1585    0.0000 C   0  0  0  0  0  0  0  0  0  0  0  0
    6.2809    2.9665    0.0000 C   0  0  0  0  0  0  0  0  0  0  0  0
    7.2314    2.6558    0.0000 C   0  0  0  0  0  0  0  0  0  0  0  0
  1  5  1  0  0  0  0 
  1  6  1  0  0  0  0 
  1  7  1  0  0  0  0 
  2  6  1  0  0  0  0 
  2  9  1  0  0  0  0 
  3  4  1  0  0  0  0 
  3  8  1  0  0  0  0 
  3 14  1  0  0  0  0 
  4 16  1  0  0  0  0 
  5  8  1  0  0  0  0 
  7  9  1  0  0  0  0 
  7 10  1  0  0  0  0 
  9 11  1  0  0  0  0 
 10 12  1  0  0  0  0 
 11 13  1  0  0  0  0 
 12 13  1  0  0  0  0 
 14 15  1  0  0  0  0 
 15 16  1  0  0  0  0 
M  END
> <PUBCHEM_COMPOUND_CID>
63637020

$$$$
