
  CDK     1223141415

 13 13  0  0  0  0  0  0  0  0999 V2000
    0.0000    2.7060    0.0000 N   0  0  0  0  0  0  0  0  0  0  0  0
    5.6825    3.7133    0.0000 N   0  0  0  0  0  0  0  0  0  0  0  0
    4.8735    5.1145    0.0000 N   0  0  0  0  0  0  0  0  0  0  0  0
    3.9030    3.6200    0.0000 N   0  0  0  0  0  0  0  0  0  0  0  0
    4.7690    2.1200    0.0000 N   0  0  0  0  0  0  0  0  0  0  0  0
    6.3517    4.4564    0.0000 C   0  0  3  0  0  0  0  0  0  0  0  0
    5.8517    5.3224    0.0000 C   0  0  0  0  0  0  0  0  0  0  0  0
    4.7690    4.1200    0.0000 C   0  0  0  0  0  0  0  0  0  0  0  0
    3.9030    2.6200    0.0000 C   0  0  0  0  0  0  0  0  0  0  0  0
    3.0369    2.1200    0.0000 C   0  0  0  0  0  0  0  0  0  0  0  0
    3.0369    1.1200    0.0000 C   0  0  0  0  0  0  0  0  0  0  0  0
    4.7690    1.1200    0.0000 C   0  0  0  0  0  0  0  0  0  0  0  0
    3.9030    0.6200    0.0000 C   0  0  0  0  0  0  0  0  0  0  0  0
  2  6  1  0  0  0  0 
  2  8  1  0  0  0  0 
  3  7  1  0  0  0  0 
  3  8  1  0  0  0  0 
  4  8  1  0  0  0  0 
  4  9  1  0  0  0  0 
  5  9  1  0  0  0  0 
  5 12  1  0  0  0  0 
  6  7  1  0  0  0  0 
  9 10  1  0  0  0  0 
 10 11  1  0  0  0  0 
 11 13  1  0  0  0  0 
 12 13  1  0  0  0  0 
M  CHG  1   1  -1
M  CHG  1   3   1
M  ISO  1   1 127
M  ISO  1   2  32
M  END
> <PUBCHEM_COMPOUND_CID>
17132482

$$$$
