
  CDK     0202151410

 12 12  0  0  0  0  0  0  0  0999 V2000
    4.4511    0.3279    0.0000 N   0  0  0  0  0  0  0  0  0  0  0  0
    3.6464   -0.2557    0.0000 C   0  0  0  0  0  0  0  0  0  0  0  0
    3.9570   -1.2062    0.0000 C   0  0  0  0  0  0  0  0  0  0  0  0
    2.6678   -0.0495    0.0000 C   0  0  0  0  0  0  0  0  0  0  0  0
    4.9511   -1.2020    0.0000 C   0  0  0  0  0  0  0  0  0  0  0  0
    5.2558   -0.2557    0.0000 C   0  0  0  0  0  0  0  0  0  0  0  0
    4.4511    1.3279    0.0000 C   0  0  0  0  0  0  0  0  0  0  0  0
    5.3171    1.8279    0.0000 C   0  0  0  0  0  0  0  0  0  0  0  0
    3.5851    1.8279    0.0000 C   0  0  0  0  0  0  0  0  0  0  0  0
    5.3171    2.8279    0.0000 C   0  0  0  0  0  0  0  0  0  0  0  0
    3.5851    2.8279    0.0000 C   0  0  0  0  0  0  0  0  0  0  0  0
    6.2110    1.2932    0.0000 C   0  0  0  0  0  0  0  0  0  0  0  0
  1  2  1  0  0  0  0 
  1  6  1  0  0  0  0 
  1  7  1  0  0  0  0 
  2  3  1  0  0  0  0 
  2  4  1  0  0  0  0 
  3  5  1  0  0  0  0 
  5  6  1  0  0  0  0 
  7  8  1  0  0  0  0 
  7  9  1  0  0  0  0 
  8 10  1  0  0  0  0 
  8 12  1  0  0  0  0 
  9 11  1  0  0  0  0 
M  END
> <PUBCHEM_COMPOUND_CID>
61967128

$$$$
