
  CDK     0202151410

 14 14  0  0  0  0  0  0  0  0999 V2000
    5.4641    2.0670    0.0000 N   0  0  0  0  0  0  0  0  0  0  0  0
    3.7320   -2.9330    0.0000 N   0  0  0  0  0  0  0  0  0  0  0  0
    6.3301    3.5670    0.0000 C   0  0  2  0  0  0  0  0  0  0  0  0
    5.4641    3.0670    0.0000 C   0  0  0  0  0  0  0  0  0  0  0  0
    4.5981    1.5670    0.0000 C   0  0  0  0  0  0  0  0  0  0  0  0
    4.5981    0.5670    0.0000 C   0  0  0  0  0  0  0  0  0  0  0  0
    4.5981   -2.4330    0.0000 C   0  0  0  0  0  0  0  0  0  0  0  0
    2.8660   -2.4330    0.0000 C   0  0  0  0  0  0  0  0  0  0  0  0
    3.7320   -3.9330    0.0000 C   0  0  0  0  0  0  0  0  0  0  0  0
    4.5981   -1.4330    0.0000 C   0  0  0  0  0  0  0  0  0  0  0  0
    3.7320    0.0670    0.0000 C   0  0  0  0  0  0  0  0  0  0  0  0
    5.4641    0.0670    0.0000 C   0  0  0  0  0  0  0  0  0  0  0  0
    3.7320   -0.9330    0.0000 C   0  0  0  0  0  0  0  0  0  0  0  0
    5.4641   -0.9330    0.0000 C   0  0  0  0  0  0  0  0  0  0  0  0
  1  4  1  0  0  0  0 
  1  5  1  0  0  0  0 
  2  7  1  0  0  0  0 
  2  8  1  0  0  0  0 
  2  9  1  0  0  0  0 
  3  4  1  1  0  0  0 
  5  6  1  0  0  0  0 
  6 11  1  0  0  0  0 
  6 12  1  0  0  0  0 
  7 10  1  0  0  0  0 
 10 13  1  0  0  0  0 
 10 14  1  0  0  0  0 
 11 13  1  0  0  0  0 
 12 14  1  0  0  0  0 
M  END
> <PUBCHEM_COMPOUND_CID>
29881511

$$$$

  CDK     0202151410

 12 13  0  0  0  0  0  0  0  0999 V2000
    7.3931    0.3257    0.0000 C   0  0  2  0  0  0  0  0  0  0  0  0
    7.3931    1.3257    0.0000 C   0  0  2  0  0  0  0  0  0  0  0  0
    6.5271   -0.1743    0.0000 C   0  0  1  0  0  0  0  0  0  0  0  0
    5.6610    0.3257    0.0000 C   0  0  2  0  0  0  0  0  0  0  0  0
    6.5271    1.8257    0.0000 C   0  0  0  0  0  0  0  0  0  0  0  0
    5.6610    1.3257    0.0000 C   0  0  0  0  0  0  0  0  0  0  0  0
    8.3393    0.0210    0.0000 C   0  0  0  0  0  0  0  0  0  0  0  0
    4.7510   -0.1811    0.0000 C   0  0  2  0  0  0  0  0  0  0  0  0
    6.5431   -1.2158    0.0000 C   0  0  2  0  0  0  0  0  0  0  0  0
    5.6451   -1.7436    0.0000 C   0  0  0  0  0  0  0  0  0  0  0  0
    4.7430   -1.2227    0.0000 C   0  0  0  0  0  0  0  0  0  0  0  0
    3.8242    0.3829    0.0000 C   0  0  0  0  0  0  0  0  0  0  0  0
  1  2  1  0  0  0  0 
  1  3  1  0  0  0  0 
  1  7  1  0  0  0  0 
  2  5  1  0  0  0  0 
  3  4  1  0  0  0  0 
  3  9  1  0  0  0  0 
  4  6  1  0  0  0  0 
  4  8  1  0  0  0  0 
  5  6  1  0  0  0  0 
  8 11  1  0  0  0  0 
  8 12  1  0  0  0  0 
  9 10  1  0  0  0  0 
 10 11  1  0  0  0  0 
M  END
> <PUBCHEM_COMPOUND_CID>
57147570

$$$$

  CDK     0202151410

 14 14  0  0  0  0  0  0  0  0999 V2000
    4.9889    1.9936    0.0000 O   0  0  0  0  0  0  0  0  0  0  0  0
    7.7619   -0.6276    0.0000 N   0  0  3  0  0  0  0  0  0  0  0  0
    5.2619    0.2384    0.0000 N   0  0  0  0  0  0  0  0  0  0  0  0
    3.7320    0.7384    0.0000 N   0  0  0  0  0  0  0  0  0  0  0  0
    4.6783   -0.5663    0.0000 N   0  0  0  0  0  0  0  0  0  0  0  0
    9.2619   -1.4936    0.0000 C   0  0  0  0  0  0  0  0  0  0  0  0
    8.2619   -1.4936    0.0000 C   0  0  0  0  0  0  0  0  0  0  0  0
    6.7619   -0.6276    0.0000 C   0  0  0  0  0  0  0  0  0  0  0  0
    8.2619    0.2384    0.0000 C   0  0  0  0  0  0  0  0  0  0  0  0
    6.2619    0.2384    0.0000 C   0  0  0  0  0  0  0  0  0  0  0  0
    7.7619    1.1044    0.0000 C   0  0  0  0  0  0  0  0  0  0  0  0
    4.6783    1.0431    0.0000 C   0  0  0  0  0  0  0  0  0  0  0  0
    3.7320   -0.2616    0.0000 C   0  0  0  0  0  0  0  0  0  0  0  0
    2.8660    1.2384    0.0000 C   0  0  0  0  0  0  0  0  0  0  0  0
  1 12  1  0  0  0  0 
  2  7  1  0  0  0  0 
  2  8  1  0  0  0  0 
  2  9  1  0  0  0  0 
  3  5  1  0  0  0  0 
  3 10  1  0  0  0  0 
  3 12  1  0  0  0  0 
  4 12  1  0  0  0  0 
  4 13  1  0  0  0  0 
  4 14  1  0  0  0  0 
  5 13  1  0  0  0  0 
  6  7  1  0  0  0  0 
  8 10  1  0  0  0  0 
  9 11  1  0  0  0  0 
M  END
> <PUBCHEM_COMPOUND_CID>
43656442

$$$$

  CDK     0202151410

 12 13  0  0  0  0  0  0  0  0999 V2000
    7.3931    0.3257    0.0000 C   0  0  2  0  0  0  0  0  0  0  0  0
    7.3931    1.3257    0.0000 C   0  0  2  0  0  0  0  0  0  0  0  0
    6.5271   -0.1743    0.0000 C   0  0  1  0  0  0  0  0  0  0  0  0
    5.6610    0.3257    0.0000 C   0  0  2  0  0  0  0  0  0  0  0  0
    6.5271    1.8257    0.0000 C   0  0  0  0  0  0  0  0  0  0  0  0
    5.6610    1.3257    0.0000 C   0  0  0  0  0  0  0  0  0  0  0  0
    8.3393    0.0210    0.0000 C   0  0  0  0  0  0  0  0  0  0  0  0
    4.7510   -0.1811    0.0000 C   0  0  2  0  0  0  0  0  0  0  0  0
    6.5431   -1.2158    0.0000 C   0  0  2  0  0  0  0  0  0  0  0  0
    5.6451   -1.7436    0.0000 C   0  0  0  0  0  0  0  0  0  0  0  0
    4.7430   -1.2227    0.0000 C   0  0  0  0  0  0  0  0  0  0  0  0
    3.8242    0.3829    0.0000 C   0  0  0  0  0  0  0  0  0  0  0  0
  1  2  1  0  0  0  0 
  1  3  1  0  0  0  0 
  1  7  1  0  0  0  0 
  2  5  1  0  0  0  0 
  3  4  1  0  0  0  0 
  3  9  1  0  0  0  0 
  4  6  1  0  0  0  0 
  4  8  1  0  0  0  0 
  5  6  1  0  0  0  0 
  8 11  1  0  0  0  0 
  8 12  1  0  0  0  0 
  9 10  1  0  0  0  0 
 10 11  1  0  0  0  0 
M  END
> <PUBCHEM_COMPOUND_CID>
57147570

$$$$
