69874902
  CDK     1227140956

 44 47  0  0  0  0  0  0  0  0999 V2000
    6.7354   -2.6980    0.0000 S   0  0  0  0  0  0  0  0  0  0  0  0
    7.4264    1.0546    0.0000 N   0  0  0  0  0  0  0  0  0  0  0  0
    3.3803    1.8856    0.0000 C   0  0  2  0  0  0  0  0  0  0  0  0
    3.6727    0.9292    0.0000 C   0  0  1  0  0  0  0  0  0  0  0  0
    4.0822    2.8933    0.0000 C   0  0  0  0  0  0  0  0  0  0  0  0
    2.0000    1.3282    0.0000 C   0  0  0  0  0  0  0  0  0  0  0  0
    2.2924    0.3719    0.0000 C   0  0  0  0  0  0  0  0  0  0  0  0
    5.4232    1.6456    0.0000 C   0  0  0  0  0  0  0  0  0  0  0  0
    4.9232    0.1067    0.0000 C   0  0  0  0  0  0  0  0  0  0  0  0
    5.7322    0.6945    0.0000 C   0  0  0  0  0  0  0  0  0  0  0  0
    6.6833    0.3855    0.0000 C   0  0  0  0  0  0  0  0  0  0  0  0
    4.9232   -0.8933    0.0000 C   0  0  0  0  0  0  0  0  0  0  0  0
    5.7892   -1.3933    0.0000 C   0  0  0  0  0  0  0  0  0  0  0  0
    4.0572   -1.3933    0.0000 C   0  0  0  0  0  0  0  0  0  0  0  0
    5.7892   -2.3933    0.0000 C   0  0  0  0  0  0  0  0  0  0  0  0
    6.7354   -1.0885    0.0000 C   0  0  0  0  0  0  0  0  0  0  0  0
    4.0572   -2.3933    0.0000 C   0  0  0  0  0  0  0  0  0  0  0  0
    8.3775    0.7456    0.0000 C   0  0  0  0  0  0  0  0  0  0  0  0
    7.2185    2.0328    0.0000 C   0  0  0  0  0  0  0  0  0  0  0  0
    4.9232   -2.8933    0.0000 C   0  0  0  0  0  0  0  0  0  0  0  0
    7.3190   -1.8933    0.0000 C   0  0  0  0  0  0  0  0  0  0  0  0
    3.1318    2.6984    0.0000 H   0  0  0  0  0  0  0  0  0  0  0  0
    3.9212    0.1164    0.0000 H   0  0  0  0  0  0  0  0  0  0  0  0
    4.6918    3.0066    0.0000 H   0  0  0  0  0  0  0  0  0  0  0  0
    3.7460    3.4142    0.0000 H   0  0  0  0  0  0  0  0  0  0  0  0
    1.7846    1.9096    0.0000 H   0  0  0  0  0  0  0  0  0  0  0  0
    1.4126    1.1298    0.0000 H   0  0  0  0  0  0  0  0  0  0  0  0
    1.7050    0.1735    0.0000 H   0  0  0  0  0  0  0  0  0  0  0  0
    2.5077   -0.2095    0.0000 H   0  0  0  0  0  0  0  0  0  0  0  0
    6.0342    1.7507    0.0000 H   0  0  0  0  0  0  0  0  0  0  0  0
    5.4066    2.2654    0.0000 H   0  0  0  0  0  0  0  0  0  0  0  0
    6.3922   -0.1619    0.0000 H   0  0  0  0  0  0  0  0  0  0  0  0
    7.1718    0.0038    0.0000 H   0  0  0  0  0  0  0  0  0  0  0  0
    3.5202   -1.0833    0.0000 H   0  0  0  0  0  0  0  0  0  0  0  0
    6.9280   -0.4992    0.0000 H   0  0  0  0  0  0  0  0  0  0  0  0
    3.5202   -2.7033    0.0000 H   0  0  0  0  0  0  0  0  0  0  0  0
    8.1859    0.1560    0.0000 H   0  0  0  0  0  0  0  0  0  0  0  0
    8.9671    0.5540    0.0000 H   0  0  0  0  0  0  0  0  0  0  0  0
    8.5691    1.3353    0.0000 H   0  0  0  0  0  0  0  0  0  0  0  0
    7.8250    2.1617    0.0000 H   0  0  0  0  0  0  0  0  0  0  0  0
    7.0896    2.6392    0.0000 H   0  0  0  0  0  0  0  0  0  0  0  0
    6.6120    1.9039    0.0000 H   0  0  0  0  0  0  0  0  0  0  0  0
    4.9232   -3.5133    0.0000 H   0  0  0  0  0  0  0  0  0  0  0  0
    7.9390   -1.8933    0.0000 H   0  0  0  0  0  0  0  0  0  0  0  0
  1 15  1  0  0  0  0 
  1 21  1  0  0  0  0 
  2 11  1  0  0  0  0 
  2 18  1  0  0  0  0 
  2 19  1  0  0  0  0 
  3  5  1  0  0  0  0 
  3  6  1  0  0  0  0 
  3  8  1  0  0  0  0 
  3 22  1  6  0  0  0 
  4  5  1  0  0  0  0 
  4  7  1  0  0  0  0 
  4  9  1  0  0  0  0 
  4 23  1  1  0  0  0 
  5 24  1  0  0  0  0 
  5 25  1  0  0  0  0 
  6  7  1  0  0  0  0 
  6 26  1  0  0  0  0 
  6 27  1  0  0  0  0 
  7 28  1  0  0  0  0 
  7 29  1  0  0  0  0 
  8 10  1  0  0  0  0 
  8 30  1  0  0  0  0 
  8 31  1  0  0  0  0 
  9 10  2  0  0  0  0 
  9 12  1  0  0  0  0 
 10 11  1  0  0  0  0 
 11 32  1  0  0  0  0 
 11 33  1  0  0  0  0 
 12 13  2  0  0  0  0 
 12 14  1  0  0  0  0 
 13 15  1  0  0  0  0 
 13 16  1  0  0  0  0 
 14 17  2  0  0  0  0 
 14 34  1  0  0  0  0 
 15 20  2  0  0  0  0 
 16 21  2  0  0  0  0 
 16 35  1  0  0  0  0 
 17 20  1  0  0  0  0 
 17 36  1  0  0  0  0 
 18 37  1  0  0  0  0 
 18 38  1  0  0  0  0 
 18 39  1  0  0  0  0 
 19 40  1  0  0  0  0 
 19 41  1  0  0  0  0 
 19 42  1  0  0  0  0 
 20 43  1  0  0  0  0 
 21 44  1  0  0  0  0 
M  END
> <cdk:Title>
69874902

> <cdk:Remark>
null

> <PUBCHEM_COMPOUND_CID>
69874902

> <PUBCHEM_COMPOUND_CANONICALIZED>
1

> <PUBCHEM_CACTVS_COMPLEXITY>
427

> <PUBCHEM_CACTVS_HBOND_ACCEPTOR>
2

> <PUBCHEM_CACTVS_HBOND_DONOR>
0

> <PUBCHEM_CACTVS_ROTATABLE_BOND>
3

> <PUBCHEM_CACTVS_SUBSKEYS>
AAADceB6AABAAAAAAAAAAAAAAAAAAaIAAAAwQAAABAAAAEgB8AAAHAQAAAAADQDFWASyAcMAAAiEAiBCAACDAIAgCBBIiBgIAIgIICKgkRCEIAAggAAoiAcQgMAOgAAAgAAUAAAAAAEAACgAAQAAAAAAAA==

> <PUBCHEM_IUPAC_OPENEYE_NAME>
1-[(1S,5R)-4-(benzothiophen-4-yl)-3-bicyclo[3.2.1]oct-3-enyl]-N,N-dimethyl-methanamine

> <PUBCHEM_IUPAC_CAS_NAME>
1-[(1S,5R)-4-(1-benzothiophen-4-yl)-3-bicyclo[3.2.1]oct-3-enyl]-N,N-dimethylmethanamine

> <PUBCHEM_IUPAC_NAME>
1-[(1S,5R)-4-(1-benzothiophen-4-yl)-3-bicyclo[3.2.1]oct-3-enyl]-N,N-dimethylmethanamine

> <PUBCHEM_IUPAC_SYSTEMATIC_NAME>
1-[(1S,5R)-4-(1-benzothiophen-4-yl)-3-bicyclo[3.2.1]oct-3-enyl]-N,N-dimethyl-methanamine

> <PUBCHEM_IUPAC_TRADITIONAL_NAME>
[(1S,5R)-4-(benzothiophen-4-yl)-3-bicyclo[3.2.1]oct-3-enyl]methyl-dimethyl-amine

> <PUBCHEM_IUPAC_INCHI>
InChI=1S/C19H23NS/c1-20(2)12-15-11-13-6-7-14(10-13)19(15)17-4-3-5-18-16(17)8-9-21-18/h3-5,8-9,13-14H,6-7,10-12H2,1-2H3/t13-,14+/m0/s1

> <PUBCHEM_IUPAC_INCHIKEY>
RNRHAIWIVZBKIE-UONOGXRCSA-N

> <PUBCHEM_XLOGP3_AA>
4.4

> <PUBCHEM_EXACT_MASS>
297.155121

> <PUBCHEM_MOLECULAR_FORMULA>
C19H23NS

> <PUBCHEM_MOLECULAR_WEIGHT>
297.45762

> <PUBCHEM_OPENEYE_CAN_SMILES>
CN(C)CC1=C(C2CCC(C2)C1)C3=C4C=CSC4=CC=C3

> <PUBCHEM_OPENEYE_ISO_SMILES>
CN(C)CC1=C([C@@H]2CC[C@@H](C2)C1)C3=C4C=CSC4=CC=C3

> <PUBCHEM_CACTVS_TPSA>
31.5

> <PUBCHEM_MONOISOTOPIC_WEIGHT>
297.155121

> <PUBCHEM_TOTAL_CHARGE>
0

> <PUBCHEM_HEAVY_ATOM_COUNT>
21

> <PUBCHEM_ATOM_DEF_STEREO_COUNT>
2

> <PUBCHEM_ATOM_UDEF_STEREO_COUNT>
0

> <PUBCHEM_BOND_DEF_STEREO_COUNT>
0

> <PUBCHEM_BOND_UDEF_STEREO_COUNT>
0

> <PUBCHEM_ISOTOPIC_ATOM_COUNT>
0

> <PUBCHEM_COMPONENT_COUNT>
1

> <PUBCHEM_CACTVS_TAUTO_COUNT>
1

> <PUBCHEM_COORDINATE_TYPE>
1

> <PUBCHEM_BONDANNOTATIONS>
1  15  8

$$$$
